<?xml version="1.0" encoding="UTF-8"?>

<!-- generated on 2018/4/2 13:34:10 by Netedit Version 0.32.0
<?xml version="1.0" encoding="UTF-8"?>

<configuration xmlns:xsi="http://www.w3.org/2001/XMLSchema-instance" xsi:noNamespaceSchemaLocation="http://sumo.dlr.de/xsd/netconvertConfiguration.xsd">

    <input>
        <sumo-net-file value="C:\Users\Administrator.SC-201708201247\Sumo\finalantingwithcross.net.xml"/>
    </input>

    <output>
        <output-file value="C:\Users\Administrator.SC-201708201247\Sumo\finalantingwithcross.net.xml"/>
    </output>

    <processing>
        <no-internal-links value="false"/>
        <no-turnarounds value="true"/>
        <offset.disable-normalization value="true"/>
        <lefthand value="false"/>
        <junctions.corner-detail value="0"/>
        <rectangular-lane-cut value="false"/>
        <walkingareas value="false"/>
    </processing>

</configuration>
-->

<net version="0.27" xmlns:xsi="http://www.w3.org/2001/XMLSchema-instance" xsi:noNamespaceSchemaLocation="http://sumo.dlr.de/xsd/net_file.xsd">

    <location netOffset="0.00,0.00" convBoundary="527.43,196.75,2104.86,1444.53" origBoundary="-10000000000.00,-10000000000.00,10000000000.00,10000000000.00" projParameter="!"/>

    <edge id=":J1_0" function="internal">
        <lane id=":J1_0_0" index="0" disallow="pedestrian" speed="13.89" length="71.08" width="3.75" shape="823.29,1007.77 813.44,1022.12 802.36,1038.62 792.31,1054.63 785.53,1067.46"/>
        <lane id=":J1_0_1" index="1" disallow="pedestrian" speed="13.89" length="71.08" width="3.75" shape="820.11,1005.60 810.20,1020.04 799.00,1036.78 788.82,1053.02 781.98,1065.96"/>
    </edge>
    <edge id=":J1_2" function="internal">
        <lane id=":J1_2_0" index="0" disallow="pedestrian" speed="13.89" length="13.26" width="3.75" shape="816.94,1003.42 808.28,1013.47"/>
    </edge>
    <edge id=":J1_3" function="internal">
        <lane id=":J1_3_0" index="0" disallow="pedestrian" speed="13.89" length="12.20" width="3.75" shape="816.94,1003.42 808.86,1012.56"/>
    </edge>
    <edge id=":J1_12" function="internal">
        <lane id=":J1_12_0" index="0" speed="13.89" length="47.66" width="3.75" shape="808.28,1013.47 805.07,1017.20 792.51,1024.96 779.25,1026.70 765.29,1022.43"/>
    </edge>
    <edge id=":J1_13" function="internal">
        <lane id=":J1_13_0" index="0" speed="13.89" length="45.80" width="3.75" shape="808.86,1012.56 806.00,1015.79 794.04,1022.50 781.05,1023.57 767.04,1019.00"/>
    </edge>
    <edge id=":J1_4" function="internal">
        <lane id=":J1_4_0" index="0" disallow="pedestrian" speed="13.89" length="42.70" width="3.75" shape="770.53,1012.13 781.68,1015.72 792.07,1014.74 801.70,1009.18 807.93,1002.09"/>
    </edge>
    <edge id=":J1_5" function="internal">
        <lane id=":J1_5_0" index="0" disallow="pedestrian" speed="13.89" length="45.47" width="3.75" shape="770.53,1012.13 783.17,1016.52 794.59,1016.16 804.79,1011.07 811.04,1004.22"/>
    </edge>
    <edge id=":J1_6" function="internal">
        <lane id=":J1_6_0" index="0" disallow="pedestrian" speed="13.89" length="57.20" width="3.75" shape="768.78,1015.56 781.78,1024.89 788.90,1036.65 790.15,1050.84 786.61,1063.57"/>
    </edge>
    <edge id=":J1_7" function="internal">
        <lane id=":J1_7_0" index="0" disallow="pedestrian" speed="13.89" length="54.35" width="3.75" shape="768.78,1015.56 780.26,1024.14 786.29,1035.40 786.86,1049.34 783.12,1062.10"/>
    </edge>
    <edge id=":J1_14" function="internal">
        <lane id=":J1_14_0" index="0" speed="13.89" length="4.03" width="3.75" shape="807.93,1002.09 810.59,999.07"/>
    </edge>
    <edge id=":J1_15" function="internal">
        <lane id=":J1_15_0" index="0" speed="13.89" length="4.04" width="3.75" shape="811.04,1004.22 813.76,1001.24"/>
    </edge>
    <edge id=":J1_16" function="internal">
        <lane id=":J1_16_0" index="0" speed="13.89" length="4.03" width="3.75" shape="786.61,1063.57 785.53,1067.46"/>
    </edge>
    <edge id=":J1_17" function="internal">
        <lane id=":J1_17_0" index="0" speed="13.89" length="4.03" width="3.75" shape="783.12,1062.10 781.98,1065.96"/>
    </edge>
    <edge id=":J1_8" function="internal">
        <lane id=":J1_8_0" index="0" disallow="pedestrian" speed="13.89" length="42.54" width="3.75" shape="774.89,1062.96 778.95,1049.43 778.70,1038.17 774.15,1029.17 768.52,1024.89"/>
    </edge>
    <edge id=":J1_9" function="internal">
        <lane id=":J1_9_0" index="0" disallow="pedestrian" speed="13.89" length="45.65" width="3.75" shape="774.89,1062.96 779.62,1047.88 779.89,1035.53 775.69,1025.90 770.23,1021.54"/>
    </edge>
    <edge id=":J1_10" function="internal">
        <lane id=":J1_10_0" index="0" disallow="pedestrian" speed="13.89" length="72.85" width="3.75" shape="774.89,1062.96 781.74,1048.89 791.75,1030.47 802.25,1012.32 810.59,999.07"/>
        <lane id=":J1_10_1" index="1" disallow="pedestrian" speed="13.89" length="72.85" width="3.75" shape="778.44,1064.46 785.23,1050.49 795.11,1032.31 805.49,1014.40 813.76,1001.24"/>
    </edge>
    <edge id=":J1_18" function="internal">
        <lane id=":J1_18_0" index="0" speed="13.89" length="4.07" width="3.75" shape="768.52,1024.89 765.29,1022.43"/>
    </edge>
    <edge id=":J1_19" function="internal">
        <lane id=":J1_19_0" index="0" speed="13.89" length="4.08" width="3.75" shape="770.23,1021.54 767.04,1019.00"/>
    </edge>
    <edge id=":J1_c0" function="crossing" crossingEdges="J1-J2 J2-J1">
        <lane id=":J1_c0_0" index="0" allow="pedestrian" speed="1.00" length="19.15" width="4.00" shape="807.91,999.65 823.70,1010.48"/>
    </edge>
    <edge id=":J1_c1" function="crossing" crossingEdges="J1-N2 N2-J1">
        <lane id=":J1_c1_0" index="0" allow="pedestrian" speed="1.00" length="15.30" width="4.00" shape="766.22,1025.00 773.17,1011.37"/>
    </edge>
    <edge id=":J1_c2" function="crossing" crossingEdges="J1-N1 N1-J1">
        <lane id=":J1_c2_0" index="0" allow="pedestrian" speed="1.00" length="15.30" width="4.00" shape="788.04,1066.35 773.95,1060.38"/>
    </edge>
    <edge id=":J1_w0" function="walkingarea">
        <lane id=":J1_w0_0" index="0" allow="pedestrian" speed="1.00" length="38.06" width="4.00" shape="788.81,1064.51 787.26,1068.19 790.20,1061.49 792.04,1062.27 807.70,1037.52 806.05,1036.39 824.83,1008.83 822.57,1012.13"/>
    </edge>
    <edge id=":J1_w1" function="walkingarea">
        <lane id=":J1_w1_0" index="0" allow="pedestrian" speed="1.00" length="24.70" width="4.00" shape="806.78,1001.30 809.04,998.00 808.07,999.25 806.42,998.12 773.39,1009.13 772.48,1010.91 771.38,1010.46 774.95,1012.28"/>
    </edge>
    <edge id=":J1_w2" function="walkingarea">
        <lane id=":J1_w2_0" index="0" allow="pedestrian" speed="1.00" length="24.40" width="4.00" shape="768.00,1025.91 764.44,1024.10 765.28,1024.64 764.38,1026.42 771.88,1059.88 773.72,1060.66 773.17,1062.23 774.73,1058.54"/>
    </edge>
    <edge id=":J2_0" function="internal">
        <lane id=":J2_0_0" index="0" disallow="pedestrian" speed="13.89" length="53.88" width="3.75" shape="1086.37,775.64 1073.57,781.34 1062.01,786.84 1050.71,792.83 1038.70,800.02"/>
        <lane id=":J2_0_1" index="1" disallow="pedestrian" speed="13.89" length="53.88" width="3.75" shape="1084.82,772.12 1071.94,777.86 1060.20,783.45 1048.73,789.53 1036.65,796.76"/>
    </edge>
    <edge id=":J2_2" function="internal">
        <lane id=":J2_2_0" index="0" disallow="pedestrian" speed="13.89" length="11.36" width="3.75" shape="1083.27,768.59 1072.28,771.45"/>
    </edge>
    <edge id=":J2_11" function="internal">
        <lane id=":J2_11_0" index="0" speed="13.89" length="42.67" width="3.75" shape="1072.28,771.45 1069.62,772.14 1058.04,769.90 1048.53,761.87 1041.09,748.06"/>
    </edge>
    <edge id=":J2_3" function="internal">
        <lane id=":J2_3_0" index="0" disallow="pedestrian" speed="13.89" length="37.14" width="3.75" shape="1048.28,745.30 1054.00,756.02 1061.22,762.30 1069.95,764.14 1076.25,762.54"/>
    </edge>
    <edge id=":J2_4" function="internal">
        <lane id=":J2_4_0" index="0" disallow="pedestrian" speed="13.89" length="40.46" width="3.75" shape="1048.28,745.30 1054.61,757.59 1062.29,764.98 1071.33,767.47 1077.76,765.99"/>
    </edge>
    <edge id=":J2_5" function="internal">
        <lane id=":J2_5_0" index="0" disallow="pedestrian" speed="13.89" length="54.08" width="3.75" shape="1044.69,746.68 1050.05,764.97 1050.84,779.96 1047.06,791.64 1041.60,797.11"/>
    </edge>
    <edge id=":J2_6" function="internal">
        <lane id=":J2_6_0" index="0" disallow="pedestrian" speed="13.89" length="51.17" width="3.75" shape="1044.69,746.68 1049.39,763.39 1049.62,777.31 1045.37,788.43 1039.60,793.95"/>
    </edge>
    <edge id=":J2_7" function="internal">
        <lane id=":J2_7_0" index="0" disallow="pedestrian" speed="13.89" length="48.33" width="3.75" shape="1044.69,746.68 1048.74,761.82 1048.40,774.66 1043.69,785.23 1037.59,790.77"/>
    </edge>
    <edge id=":J2_12" function="internal">
        <lane id=":J2_12_0" index="0" speed="13.89" length="4.05" width="3.75" shape="1076.25,762.54 1080.18,761.54"/>
    </edge>
    <edge id=":J2_13" function="internal">
        <lane id=":J2_13_0" index="0" speed="13.89" length="4.07" width="3.75" shape="1077.76,765.99 1081.73,765.07"/>
    </edge>
    <edge id=":J2_14" function="internal">
        <lane id=":J2_14_0" index="0" speed="13.89" length="4.10" width="3.75" shape="1041.60,797.11 1038.70,800.02"/>
    </edge>
    <edge id=":J2_15" function="internal">
        <lane id=":J2_15_0" index="0" speed="13.89" length="4.08" width="3.75" shape="1039.60,793.95 1036.65,796.76"/>
    </edge>
    <edge id=":J2_16" function="internal">
        <lane id=":J2_16_0" index="0" speed="13.89" length="4.06" width="3.75" shape="1037.59,790.77 1034.59,793.51"/>
    </edge>
    <edge id=":J2_8" function="internal">
        <lane id=":J2_8_0" index="0" disallow="pedestrian" speed="13.89" length="40.22" width="3.75" shape="1030.47,787.00 1038.85,779.69 1043.41,770.76 1044.16,760.22 1042.08,751.97"/>
    </edge>
    <edge id=":J2_9" function="internal">
        <lane id=":J2_9_0" index="0" disallow="pedestrian" speed="13.89" length="55.59" width="3.75" shape="1030.47,787.00 1041.66,780.49 1054.93,773.52 1068.40,766.93 1080.18,761.54"/>
        <lane id=":J2_9_1" index="1" disallow="pedestrian" speed="13.89" length="55.59" width="3.75" shape="1032.53,790.25 1043.64,783.78 1056.73,776.91 1070.03,770.42 1081.73,765.07"/>
    </edge>
    <edge id=":J2_17" function="internal">
        <lane id=":J2_17_0" index="0" speed="13.89" length="4.03" width="3.75" shape="1042.08,751.97 1041.09,748.06"/>
    </edge>
    <edge id=":J2_c0" function="crossing" crossingEdges="J2-N4 N4-J2">
        <lane id=":J2_c0_0" index="0" allow="pedestrian" speed="1.00" length="19.15" width="4.00" shape="1077.60,760.63 1085.29,778.16"/>
    </edge>
    <edge id=":J2_c1" function="crossing" crossingEdges="J2-N3 N3-J2">
        <lane id=":J2_c1_0" index="0" allow="pedestrian" speed="1.00" length="11.45" width="4.00" shape="1040.06,750.60 1050.75,746.50"/>
    </edge>
    <edge id=":J2_c2" function="crossing" crossingEdges="J2-J1 J1-J2">
        <lane id=":J2_c2_0" index="0" allow="pedestrian" speed="1.00" length="19.15" width="4.00" shape="1041.39,800.53 1031.16,784.34"/>
    </edge>
    <edge id=":J2_w0" function="walkingarea">
        <lane id=":J2_w0_0" index="0" allow="pedestrian" speed="1.00" length="34.88" width="4.00" shape="1043.09,799.46 1039.76,801.69 1040.83,803.38 1087.96,779.28 1087.16,777.45 1083.46,778.97"/>
    </edge>
    <edge id=":J2_w1" function="walkingarea">
        <lane id=":J2_w1_0" index="0" allow="pedestrian" speed="1.00" length="21.40" width="4.00" shape="1075.76,761.43 1079.43,759.82 1079.39,759.73 1078.58,757.90 1051.99,743.88 1050.13,744.60 1051.47,748.37"/>
    </edge>
    <edge id=":J2_w2" function="walkingarea">
        <lane id=":J2_w2_0" index="0" allow="pedestrian" speed="1.00" length="24.61" width="4.00" shape="1040.77,752.47 1039.25,748.77 1037.38,749.48 1028.35,783.64 1029.42,785.33 1032.85,783.28"/>
    </edge>
    <edge id=":J3_0" function="internal">
        <lane id=":J3_0_0" index="0" disallow="pedestrian" speed="13.89" length="52.09" width="3.75" shape="1396.76,721.85 1345.01,718.77"/>
        <lane id=":J3_0_1" index="1" disallow="pedestrian" speed="13.89" length="52.09" width="3.75" shape="1397.19,718.02 1345.19,714.93"/>
        <lane id=":J3_0_2" index="2" disallow="pedestrian" speed="13.89" length="52.09" width="3.75" shape="1397.62,714.19 1345.37,711.08"/>
    </edge>
    <edge id=":J3_3" function="internal">
        <lane id=":J3_3_0" index="0" disallow="pedestrian" speed="13.89" length="13.96" width="3.75" shape="1397.62,714.19 1384.93,711.83 1383.97,711.41"/>
    </edge>
    <edge id=":J3_10" function="internal">
        <lane id=":J3_10_0" index="0" speed="13.89" length="21.57" width="3.75" shape="1383.97,711.41 1376.43,708.07 1372.11,702.89 1371.98,696.31"/>
    </edge>
    <edge id=":J3_4" function="internal">
        <lane id=":J3_4_0" index="0" disallow="pedestrian" speed="13.89" length="18.33" width="3.75" shape="1379.41,698.31 1380.01,701.04 1383.38,703.33 1389.54,705.16 1394.52,705.93"/>
    </edge>
    <edge id=":J3_5" function="internal">
        <lane id=":J3_5_0" index="0" disallow="pedestrian" speed="13.89" length="37.23" width="3.75" shape="1379.41,698.31 1375.46,706.10 1368.44,711.46 1358.35,714.41 1349.20,714.77"/>
    </edge>
    <edge id=":J3_6" function="internal">
        <lane id=":J3_6_0" index="0" disallow="pedestrian" speed="13.89" length="32.00" width="3.75" shape="1375.70,697.31 1372.29,703.80 1366.10,708.26 1357.12,710.68 1349.38,710.95"/>
    </edge>
    <edge id=":J3_11" function="internal">
        <lane id=":J3_11_0" index="0" speed="13.89" length="4.00" width="3.75" shape="1394.52,705.93 1398.47,706.54"/>
    </edge>
    <edge id=":J3_12" function="internal">
        <lane id=":J3_12_0" index="0" speed="13.89" length="4.02" width="3.75" shape="1349.20,714.77 1345.19,714.93"/>
    </edge>
    <edge id=":J3_13" function="internal">
        <lane id=":J3_13_0" index="0" speed="13.89" length="4.01" width="3.75" shape="1349.38,710.95 1345.37,711.08"/>
    </edge>
    <edge id=":J3_7" function="internal">
        <lane id=":J3_7_0" index="0" disallow="pedestrian" speed="13.89" length="21.44" width="3.75" shape="1345.73,703.39 1354.68,703.24 1361.41,701.84 1365.94,699.20 1366.13,698.88"/>
    </edge>
    <edge id=":J3_8" function="internal">
        <lane id=":J3_8_0" index="0" disallow="pedestrian" speed="13.89" length="52.71" width="3.75" shape="1345.73,703.39 1398.47,706.54"/>
        <lane id=":J3_8_1" index="1" disallow="pedestrian" speed="13.89" length="52.71" width="3.75" shape="1345.55,707.24 1398.04,710.37"/>
    </edge>
    <edge id=":J3_14" function="internal">
        <lane id=":J3_14_0" index="0" speed="13.89" length="4.16" width="3.75" shape="1366.13,698.88 1368.26,695.31"/>
    </edge>
    <edge id=":J3_c0" function="crossing" crossingEdges="J3-N6 N6-J3">
        <lane id=":J3_c0_0" index="0" allow="pedestrian" speed="1.00" length="19.15" width="4.00" shape="1396.69,704.45 1394.56,723.49"/>
    </edge>
    <edge id=":J3_c1" function="crossing" crossingEdges="gneE30 -gneE30">
        <lane id=":J3_c1_0" index="0" allow="pedestrian" speed="1.00" length="15.30" width="4.00" shape="1365.93,696.76 1380.70,700.73"/>
    </edge>
    <edge id=":J3_c2" function="crossing" crossingEdges="J3-N5 N5-J3">
        <lane id=":J3_c2_0" index="0" allow="pedestrian" speed="1.00" length="19.15" width="4.00" shape="1346.92,720.74 1347.82,701.61"/>
    </edge>
    <edge id=":J3_w0" function="walkingarea">
        <lane id=":J3_w0_0" index="0" allow="pedestrian" speed="1.00" length="33.89" width="4.00" shape="1348.92,720.83 1344.92,720.65 1344.92,720.75 1344.82,722.75 1396.31,725.80 1396.54,723.81 1392.57,723.26"/>
    </edge>
    <edge id=":J3_w1" function="walkingarea">
        <lane id=":J3_w1_0" index="0" allow="pedestrian" speed="1.00" length="11.97" width="4.00" shape="1394.71,704.23 1398.69,704.58 1398.92,702.59 1383.25,699.34 1381.32,698.82 1381.22,698.80 1380.19,702.66"/>
    </edge>
    <edge id=":J3_w2" function="walkingarea">
        <lane id=":J3_w2_0" index="0" allow="pedestrian" speed="1.00" length="13.84" width="4.00" shape="1365.41,698.69 1366.35,694.80 1364.42,694.28 1345.92,699.42 1345.82,701.42 1349.81,701.71"/>
    </edge>
    <edge id=":J4_0" function="internal">
        <lane id=":J4_0_0" index="0" disallow="pedestrian" speed="13.89" length="35.21" width="3.75" shape="1735.64,861.41 1724.70,855.80 1715.47,854.58 1707.95,857.73 1704.61,862.05"/>
    </edge>
    <edge id=":J4_1" function="internal">
        <lane id=":J4_1_0" index="0" disallow="pedestrian" speed="13.89" length="64.34" width="3.75" shape="1735.64,861.41 1682.68,824.97"/>
        <lane id=":J4_1_1" index="1" disallow="pedestrian" speed="13.89" length="64.34" width="3.75" shape="1737.76,858.20 1684.75,821.73"/>
        <lane id=":J4_1_2" index="2" disallow="pedestrian" speed="13.89" length="64.34" width="3.75" shape="1739.89,854.99 1686.82,818.48"/>
    </edge>
    <edge id=":J4_4" function="internal">
        <lane id=":J4_4_0" index="0" disallow="pedestrian" speed="13.89" length="19.50" width="3.75" shape="1739.89,854.99 1729.82,845.87 1727.29,840.52"/>
    </edge>
    <edge id=":J4_15" function="internal">
        <lane id=":J4_15_0" index="0" speed="13.89" length="4.07" width="3.75" shape="1704.61,862.05 1702.12,865.27"/>
    </edge>
    <edge id=":J4_16" function="internal">
        <lane id=":J4_16_0" index="0" speed="13.89" length="33.27" width="3.75" shape="1727.29,840.52 1724.72,835.10 1724.57,822.69 1729.38,808.63"/>
    </edge>
    <edge id=":J4_5" function="internal">
        <lane id=":J4_5_0" index="0" disallow="pedestrian" speed="13.89" length="34.54" width="3.75" shape="1736.30,812.02 1733.23,821.64 1733.87,830.40 1738.23,838.28 1743.26,842.64"/>
    </edge>
    <edge id=":J4_6" function="internal">
        <lane id=":J4_6_0" index="0" disallow="pedestrian" speed="13.89" length="63.29" width="3.75" shape="1736.30,812.02 1728.81,824.77 1718.44,840.36 1708.46,855.08 1702.12,865.27"/>
    </edge>
    <edge id=":J4_7" function="internal">
        <lane id=":J4_7_0" index="0" disallow="pedestrian" speed="13.89" length="14.49" width="3.75" shape="1732.84,810.33 1724.71,821.56 1724.15,821.84"/>
    </edge>
    <edge id=":J4_17" function="internal">
        <lane id=":J4_17_0" index="0" speed="13.89" length="4.03" width="3.75" shape="1743.26,842.64 1746.31,845.28"/>
    </edge>
    <edge id=":J4_18" function="internal">
        <lane id=":J4_18_0" index="0" speed="13.89" length="40.12" width="3.75" shape="1724.15,821.84 1714.33,826.66 1701.70,825.64 1686.82,818.48"/>
    </edge>
    <edge id=":J4_8" function="internal">
        <lane id=":J4_8_0" index="0" disallow="pedestrian" speed="13.89" length="40.63" width="3.75" shape="1690.97,811.99 1703.87,818.49 1714.58,820.09 1723.08,816.81 1726.89,811.87"/>
    </edge>
    <edge id=":J4_9" function="internal">
        <lane id=":J4_9_0" index="0" disallow="pedestrian" speed="13.89" length="64.55" width="3.75" shape="1690.97,811.99 1746.31,845.28"/>
        <lane id=":J4_9_1" index="1" disallow="pedestrian" speed="13.89" length="64.55" width="3.75" shape="1688.90,815.24 1744.18,848.49"/>
    </edge>
    <edge id=":J4_11" function="internal">
        <lane id=":J4_11_0" index="0" disallow="pedestrian" speed="13.89" length="16.22" width="3.75" shape="1688.90,815.24 1700.69,825.37 1701.00,825.96"/>
    </edge>
    <edge id=":J4_19" function="internal">
        <lane id=":J4_19_0" index="0" speed="13.89" length="4.08" width="3.75" shape="1726.89,811.87 1729.38,808.63"/>
    </edge>
    <edge id=":J4_20" function="internal">
        <lane id=":J4_20_0" index="0" speed="13.89" length="41.62" width="3.75" shape="1701.00,825.96 1706.83,837.08 1707.30,850.38 1702.12,865.27"/>
    </edge>
    <edge id=":J4_12" function="internal">
        <lane id=":J4_12_0" index="0" disallow="pedestrian" speed="13.89" length="39.38" width="3.75" shape="1695.27,861.76 1698.63,851.33 1697.66,841.73 1692.34,832.94 1685.79,827.54"/>
    </edge>
    <edge id=":J4_13" function="internal">
        <lane id=":J4_13_0" index="0" disallow="pedestrian" speed="13.89" length="62.88" width="3.75" shape="1698.70,863.51 1729.38,808.63"/>
    </edge>
    <edge id=":J4_14" function="internal">
        <lane id=":J4_14_0" index="0" disallow="pedestrian" speed="13.89" length="20.10" width="3.75" shape="1698.70,863.51 1708.00,849.93 1711.04,847.93"/>
    </edge>
    <edge id=":J4_21" function="internal">
        <lane id=":J4_21_0" index="0" speed="13.89" length="4.03" width="3.75" shape="1685.79,827.54 1682.68,824.97"/>
    </edge>
    <edge id=":J4_22" function="internal">
        <lane id=":J4_22_0" index="0" speed="13.89" length="35.97" width="3.75" shape="1711.04,847.93 1718.68,842.90 1730.74,842.42 1744.18,848.49"/>
    </edge>
    <edge id=":J4_c0" function="crossing" crossingEdges="gneE22">
        <lane id=":J4_c0_0" index="0" allow="pedestrian" speed="1.00" length="11.45" width="4.00" shape="1739.25,852.32 1732.93,861.87"/>
    </edge>
    <edge id=":J4_c1" function="crossing" crossingEdges="gneE23">
        <lane id=":J4_c1_0" index="0" allow="pedestrian" speed="1.00" length="7.60" width="4.00" shape="1745.67,842.62 1741.48,848.95"/>
    </edge>
    <edge id=":J4_c2" function="crossing" crossingEdges="gneE12 -gneE12">
        <lane id=":J4_c2_0" index="0" allow="pedestrian" speed="1.00" length="11.45" width="4.00" shape="1726.82,809.60 1737.10,814.64"/>
    </edge>
    <edge id=":J4_c3" function="crossing" crossingEdges="J4-N7 N7-J4">
        <lane id=":J4_c3_0" index="0" allow="pedestrian" speed="1.00" length="19.15" width="4.00" shape="1683.36,827.63 1693.66,811.49"/>
    </edge>
    <edge id=":J4_c4" function="crossing" crossingEdges="gneE14 -gneE14">
        <lane id=":J4_c4_0" index="0" allow="pedestrian" speed="1.00" length="11.45" width="4.00" shape="1704.70,864.34 1694.51,859.13"/>
    </edge>
    <edge id=":J4_w0" function="walkingarea">
        <lane id=":J4_w0_0" index="0" allow="pedestrian" speed="1.00" length="20.02" width="4.00" shape="1705.61,862.56 1703.88,866.16 1705.66,867.07 1733.44,864.73 1734.55,863.06 1734.60,862.97 1731.27,860.77"/>
    </edge>
    <edge id=":J4_w1" function="walkingarea">
        <lane id=":J4_w1_0" index="0" allow="pedestrian" speed="1.00" length="20.81" width="4.00" shape="1744.00,841.51 1747.40,843.64 1748.50,841.97 1739.87,813.77 1738.07,812.89 1737.98,812.85 1736.22,816.44"/>
    </edge>
    <edge id=":J4_w2" function="walkingarea">
        <lane id=":J4_w2_0" index="0" allow="pedestrian" speed="1.00" length="23.26" width="4.00" shape="1725.94,811.40 1727.61,807.76 1725.81,806.88 1693.11,808.64 1692.03,810.33 1695.35,812.56"/>
    </edge>
    <edge id=":J4_w3" function="walkingarea">
        <lane id=":J4_w3_0" index="0" allow="pedestrian" speed="1.00" length="23.55" width="4.00" shape="1685.04,828.71 1681.62,826.64 1680.54,828.32 1691.73,859.95 1693.51,860.86 1695.42,857.35"/>
    </edge>
    <edge id=":J4_w4" function="walkingarea">
        <lane id=":J4_w4_0" index="0" allow="pedestrian" speed="1.00" length="4.04" width="4.00" shape="1739.81,847.85 1743.15,850.06 1740.92,853.43 1737.58,851.22"/>
    </edge>
    <edge id=":J5_0" function="internal">
        <lane id=":J5_0_0" index="0" disallow="pedestrian" speed="13.89" length="49.86" width="3.75" shape="1592.12,1071.31 1587.25,1083.04 1581.31,1095.81 1575.50,1107.62 1571.01,1116.46"/>
    </edge>
    <edge id=":J5_1" function="internal">
        <lane id=":J5_1_0" index="0" disallow="pedestrian" speed="13.89" length="48.96" width="3.75" shape="1564.16,1112.95 1569.79,1101.71 1575.78,1089.29 1581.15,1077.62 1584.91,1068.62"/>
    </edge>
    <edge id=":J5_c0" function="crossing" crossingEdges="-gneE15 gneE15">
        <lane id=":J5_c0_0" index="0" allow="pedestrian" speed="1.00" length="11.45" width="4.00" shape="1582.45,1069.84 1593.18,1073.84"/>
    </edge>
    <edge id=":J5_c1" function="crossing" crossingEdges="gneE17 -gneE17">
        <lane id=":J5_c1_0" index="0" allow="pedestrian" speed="1.00" length="11.45" width="4.00" shape="1573.59,1115.53 1563.40,1110.32"/>
    </edge>
    <edge id=":J5_w0" function="walkingarea">
        <lane id=":J5_w0_0" index="0" allow="pedestrian" speed="1.00" length="32.85" width="4.00" shape="1574.50,1113.75 1572.77,1117.36 1574.55,1118.27 1595.84,1072.70 1593.97,1072.00 1593.88,1071.96 1592.48,1075.71"/>
    </edge>
    <edge id=":J5_w1" function="walkingarea">
        <lane id=":J5_w1_0" index="0" allow="pedestrian" speed="1.00" length="31.88" width="4.00" shape="1581.75,1071.71 1583.06,1067.93 1581.18,1067.23 1560.62,1111.14 1562.40,1112.05 1562.49,1112.10 1564.31,1108.54"/>
    </edge>
    <edge id=":N1_0" function="internal">
        <lane id=":N1_0_0" index="0" disallow="pedestrian" speed="13.89" length="16.56" width="3.75" shape="765.01,1115.91 763.66,1120.55 763.61,1123.95 763.65,1127.40 762.57,1132.14"/>
        <lane id=":N1_0_1" index="1" disallow="pedestrian" speed="13.89" length="16.56" width="3.75" shape="761.46,1114.41 760.09,1119.11 760.02,1122.57 760.04,1126.06 758.94,1130.86"/>
        <lane id=":N1_0_2" index="2" disallow="pedestrian" speed="13.89" length="16.56" width="3.75" shape="761.46,1114.41 755.31,1129.59"/>
    </edge>
    <edge id=":N1_3" function="internal">
        <lane id=":N1_3_0" index="0" disallow="pedestrian" speed="13.89" length="16.85" width="3.75" shape="748.04,1127.04 754.42,1111.31"/>
        <lane id=":N1_3_1" index="1" disallow="pedestrian" speed="13.89" length="16.85" width="3.75" shape="751.67,1128.31 757.96,1112.81"/>
    </edge>
    <edge id=":N10_0" function="internal">
        <lane id=":N10_0_0" index="0" disallow="pedestrian" speed="13.89" length="39.76" width="3.75" shape="1833.07,654.40 1812.38,688.48"/>
        <lane id=":N10_0_1" index="1" disallow="pedestrian" speed="13.89" length="39.76" width="3.75" shape="1833.07,654.40 1809.31,686.15"/>
    </edge>
    <edge id=":N10_2" function="internal">
        <lane id=":N10_2_0" index="0" disallow="pedestrian" speed="13.89" length="39.25" width="3.75" shape="1806.25,683.82 1810.79,676.97 1815.62,668.80 1820.84,659.77 1826.55,650.31"/>
        <lane id=":N10_2_1" index="1" disallow="pedestrian" speed="13.89" length="39.25" width="3.75" shape="1806.25,683.82 1829.81,652.36"/>
    </edge>
    <edge id=":N10_w0" function="walkingarea">
        <lane id=":N10_w0_0" index="0" allow="pedestrian" speed="1.00" length="39.58" width="2.00" shape="1814.27,689.24 1815.88,690.43 1836.44,656.52 1834.74,655.45"/>
    </edge>
    <edge id=":N10_w1" function="walkingarea">
        <lane id=":N10_w1_0" index="0" allow="pedestrian" speed="1.00" length="22.08" width="2.00" shape="1824.88,649.26 1823.18,648.19 1813.10,667.75 1814.71,668.94"/>
    </edge>
    <edge id=":N11_0" function="internal">
        <lane id=":N11_0_0" index="0" disallow="pedestrian" speed="13.89" length="24.58" width="3.75" shape="2053.05,299.43 2040.44,320.36"/>
        <lane id=":N11_0_1" index="1" disallow="pedestrian" speed="13.89" length="24.58" width="3.75" shape="2053.05,299.43 2050.37,302.70 2046.56,306.54 2042.02,311.55 2037.17,318.33"/>
    </edge>
    <edge id=":N11_2" function="internal">
        <lane id=":N11_2_0" index="0" disallow="pedestrian" speed="13.89" length="24.58" width="3.75" shape="2033.89,316.29 2046.50,295.38"/>
        <lane id=":N11_2_1" index="1" disallow="pedestrian" speed="13.89" length="24.58" width="3.75" shape="2033.89,316.29 2037.86,310.95 2041.84,306.85 2045.81,302.75 2049.77,297.41"/>
    </edge>
    <edge id=":N12_0" function="internal">
        <lane id=":N12_0_0" index="0" disallow="pedestrian" speed="13.89" length="15.09" width="3.75" shape="1636.87,972.15 1634.69,975.98 1633.46,978.73 1632.32,981.54 1630.42,985.52"/>
        <lane id=":N12_0_1" index="1" disallow="pedestrian" speed="13.89" length="15.09" width="3.75" shape="1636.87,972.15 1634.13,975.75 1631.74,977.84 1629.46,979.99 1627.00,983.75"/>
    </edge>
    <edge id=":N12_2" function="internal">
        <lane id=":N12_2_0" index="0" disallow="pedestrian" speed="13.89" length="15.51" width="3.75" shape="1623.58,981.97 1630.32,968.10"/>
        <lane id=":N12_2_1" index="1" disallow="pedestrian" speed="13.89" length="15.51" width="3.75" shape="1623.58,981.97 1626.08,978.15 1628.39,975.94 1630.81,973.79 1633.59,970.13"/>
    </edge>
    <edge id=":N12_w0" function="walkingarea">
        <lane id=":N12_w0_0" index="0" allow="pedestrian" speed="1.00" length="14.61" width="2.00" shape="1632.17,986.43 1633.95,987.35 1640.25,974.25 1638.54,973.19"/>
    </edge>
    <edge id=":N12_w1" function="walkingarea">
        <lane id=":N12_w1_0" index="0" allow="pedestrian" speed="1.00" length="15.65" width="2.00" shape="1628.64,967.06 1626.94,966.01 1620.05,980.14 1621.83,981.06"/>
    </edge>
    <edge id=":N13_0" function="internal">
        <lane id=":N13_0_0" index="0" disallow="pedestrian" speed="13.89" length="38.70" width="3.75" shape="1467.14,1268.44 1441.08,1296.70"/>
        <lane id=":N13_0_1" index="1" disallow="pedestrian" speed="13.89" length="38.70" width="3.75" shape="1467.14,1268.44 1460.72,1274.58 1452.51,1281.31 1444.35,1288.07 1438.05,1294.32"/>
    </edge>
    <edge id=":N13_2" function="internal">
        <lane id=":N13_2_0" index="0" disallow="pedestrian" speed="13.89" length="39.00" width="3.75" shape="1435.03,1291.94 1461.34,1263.38"/>
        <lane id=":N13_2_1" index="1" disallow="pedestrian" speed="13.89" length="39.00" width="3.75" shape="1435.03,1291.94 1439.54,1287.83 1447.13,1281.72 1455.97,1274.21 1464.24,1265.91"/>
    </edge>
    <edge id=":N2_0" function="internal">