<?xml version="1.0" encoding="UTF-8"?>

<!-- generated on 04/02/18 14:01:39 by SUMO duarouter Version 0.32.0
<?xml version="1.0" encoding="UTF-8"?>

<configuration xmlns:xsi="http://www.w3.org/2001/XMLSchema-instance" xsi:noNamespaceSchemaLocation="http://sumo.dlr.de/xsd/duarouterConfiguration.xsd">

    <input>
        <net-file value="finalantingwithcross.net.xml"/>
        <route-files value="trips.trips.xml"/>
    </input>

    <output>
        <output-file value="walkingdead.rou.xml"/>
        <alternatives-output value="walkingdead.rou.alt.xml"/>
    </output>

    <processing>
        <ignore-errors value="true"/>
    </processing>

    <time>
        <begin value="0"/>
        <end value="2000.0"/>
    </time>

    <report>
        <no-warnings value="true"/>
        <no-step-log value="true"/>
    </report>

</configuration>
-->

<routes xmlns:xsi="http://www.w3.org/2001/XMLSchema-instance" xsi:noNamespaceSchemaLocation="http://sumo.dlr.de/xsd/routes_file.xsd">
    <person id="1" depart="0.05">
        <walk edges="J4-N7 gneE22"/>
    </person>
    <person id="2" depart="0.10">
        <walk edges="J1-N2 N2-J1"/>
    </person>
    <person id="3" depart="0.15">
        <walk edges="J4-N7 -gneE14 -gneE15 -gneE17"/>
    </person>
    <person id="4" depart="0.20">
        <walk edges="gneE13 gneE12 gneE14"/>
    </person>
    <person id="5" depart="0.25">
        <walk edges="gneE12 gneE23"/>
    </person>
    <person id="7" depart="0.35">
        <walk edges="-gneE29 gneE13 gneE12 -gneE14 -gneE15"/>
    </person>
    <person id="8" depart="0.40">
        <walk edges="gneE30"/>
    </person>
    <person id="10" depart="0.50">
        <walk edges="gneE13 -gneE28"/>
    </person>
    <person id="11" depart="0.55">
        <walk edges="-gneE29 gneE13 gneE12"/>
    </person>
    <person id="12" depart="0.60">
        <walk edges="N4-J2 J2-J1 J1-N2"/>
    </person>
    <person id="13" depart="0.65">
        <walk edges="gneE22 gneE12 gneE13 gneE26"/>
    </person>
    <person id="14" depart="0.70">
        <walk edges="gneE23 -gneE12"/>
    </person>
    <person id="16" depart="0.80">
        <walk edges="J2-J1 J1-N2"/>
    </person>
    <person id="17" depart="0.85">
        <walk edges="-gneE17 -gneE15 -gneE14 gneE12 gneE13 gneE26"/>
    </person>
    <person id="18" depart="0.90">
        <walk edges="N7-J4 gneE14 gneE15 gneE17"/>
    </person>
    <person id="22" depart="1.10">
        <walk edges="J1-N2 J2-J1"/>
    </person>
    <person id="24" depart="1.20">
        <walk edges="gneE30 N5-J3"/>
    </person>
    <person id="26" depart="1.30">
        <walk edges="N4-J2 J1-J2"/>
    </person>
    <person id="27" depart="1.35">
        <walk edges="-gneE28 gneE13 gneE12 -gneE14 -gneE15 -gneE17"/>
    </person>
    <person id="31" depart="1.55">
        <walk edges="N2-J1 J1-N1"/>
    </person>
    <person id="33" depart="1.65">
        <walk edges="gneE13 gneE12"/>
    </person>
    <person id="37" depart="1.85">
        <walk edges="-gneE15 -gneE17"/>
    </person>
    <person id="40" depart="2.00">
        <walk edges="J4-N7 N7-J4"/>
    </person>
    <person id="43" depart="2.15">
        <walk edges="gneE13 -gneE13"/>
    </person>
    <person id="46" depart="2.30">
        <walk edges="N1-J1 J1-J2 N3-J2"/>
    </person>
    <person id="52" depart="2.60">
        <walk edges="gneE22 gneE14"/>
    </person>
    <person id="53" depart="2.65">
        <walk edges="N7-J4 gneE12 gneE13 -gneE28"/>
    </person>
    <person id="54" depart="2.70">
        <walk edges="N7-J4 gneE14"/>
    </person>
    <person id="55" depart="2.75">
        <walk edges="gneE26 gneE13 gneE12 gneE23"/>
    </person>
    <person id="57" depart="2.85">
        <walk edges="gneE29 -gneE29 gneE26"/>
    </person>
    <person id="58" depart="2.90">
        <walk edges="gneE28 -gneE26"/>
    </person>
    <person id="59" depart="2.95">
        <walk edges="J2-N4 J1-J2 J1-N2"/>
    </person>
    <person id="65" depart="3.25">
        <walk edges="gneE14 -gneE12 -gneE13"/>
    </person>
    <person id="69" depart="3.45">
        <walk edges="N3-J2 J2-J1"/>
    </person>
    <person id="70" depart="3.50">
        <walk edges="gneE22 gneE14"/>
    </person>
    <person id="72" depart="3.60">
        <walk edges="-gneE29 gneE13 gneE12 -gneE14 -gneE15 -gneE17"/>
    </person>
    <person id="74" depart="3.70">
        <walk edges="N1-J1 J1-N2"/>
    </person>
    <person id="75" depart="3.75">
        <walk edges="-gneE12 -gneE13 gneE29"/>
    </person>
    <person id="77" depart="3.85">
        <walk edges="gneE29 gneE13"/>
    </person>
    <person id="80" depart="4.00">
        <walk edges="-gneE26 gneE13 gneE12 N7-J4"/>
    </person>
    <person id="85" depart="4.25">
        <walk edges="gneE13 -gneE13"/>
    </person>
    <person id="86" depart="4.30">
        <walk edges="gneE17 gneE15 gneE14 gneE12"/>
    </person>
    <person id="89" depart="4.45">
        <walk edges="-gneE13 -gneE12 gneE14"/>
    </person>
    <person id="90" depart="4.50">
        <walk edges="-gneE15 -gneE14 gneE12"/>
    </person>
    <person id="91" depart="4.55">
        <walk edges="gneE12 -gneE14"/>
    </person>
    <person id="92" depart="4.60">
        <walk edges="-gneE13 gneE13 gneE12"/>
    </person>
    <person id="93" depart="4.65">
        <walk edges="-gneE28 -gneE29"/>
    </person>
    <person id="98" depart="4.90">
        <walk edges="gneE17"/>
    </person>
    <person id="100" depart="5.00">
        <walk edges="gneE26 gneE13 gneE12 gneE22"/>
    </person>
    <person id="102" depart="5.10">
        <walk edges="-gneE12 -gneE13 -gneE28 gneE28"/>
    </person>
    <person id="103" depart="5.15">
        <walk edges="gneE22 gneE12 gneE13 gneE26"/>
    </person>
    <person id="106" depart="5.30">
        <walk edges="-gneE26 gneE13 gneE12 -gneE14 -gneE15"/>
    </person>
    <person id="107" depart="5.35">
        <walk edges="J3-N6 J3-N5"/>
    </person>
    <person id="108" depart="5.40">
        <walk edges="-gneE26 -gneE13 -gneE12 gneE14 gneE15 gneE17"/>
    </person>
    <person id="114" depart="5.70">
        <walk edges="gneE23 gneE12 gneE13 -gneE28 gneE28"/>
    </person>
    <person id="116" depart="5.80">
        <walk edges="gneE28 -gneE28"/>
    </person>
    <person id="117" depart="5.85">
        <walk edges="N5-J3 gneE30"/>
    </person>
    <person id="118" depart="5.90">
        <walk edges="-gneE26 gneE26"/>
    </person>
    <person id="119" depart="5.95">
        <walk edges="gneE28 gneE26"/>
    </person>
    <person id="122" depart="6.10">
        <walk edges="-gneE12 -gneE14"/>
    </person>
    <person id="125" depart="6.25">
        <walk edges="-gneE30 J3-N6"/>
    </person>
    <person id="128" depart="6.40">
        <walk edges="J1-N2 J1-J2 J2-N3"/>
    </person>
    <person id="131" depart="6.55">
        <walk edges="gneE22 -gneE12 -gneE13 -gneE26"/>
    </person>
    <person id="132" depart="6.60">
        <walk edges="J3-N6"/>
    </person>
    <person id="134" depart="6.70">
        <walk edges="gneE29 gneE13 gneE12"/>
    </person>
    <person id="135" depart="6.75">
        <walk edges="-gneE28 gneE13 gneE12 gneE14 gneE15 gneE17"/>
    </person>
    <person id="136" depart="6.80">
        <walk edges="gneE26 -gneE29 gneE29"/>
    </person>
    <person id="137" depart="6.85">
        <walk edges="gneE29 gneE13 gneE12 J4-N7"/>
    </person>
    <person id="144" depart="7.20">
        <walk edges="J1-N1 J1-J2 J2-N3"/>
    </person>
    <person id="146" depart="7.30">
        <walk edges="gneE22 -gneE12"/>
    </person>
    <person id="147" depart="7.35">
        <walk edges="J4-N7 gneE14 gneE15 gneE17"/>
    </person>
    <person id="148" depart="7.40">
        <walk edges="gneE15 gneE14 -gneE12 -gneE13 gneE29"/>
    </person>
    <person id="149" depart="7.45">
        <walk edges="N2-J1 N1-J1"/>
    </person>
    <person id="151" depart="7.55">
        <walk edges="-gneE12 J4-N7"/>
    </person>
    <person id="152" depart="7.60">
        <walk edges="J3-N5 N5-J3"/>
    </person>
    <person id="156" depart="7.80">
        <walk edges="gneE22 -gneE12 -gneE13 -gneE29"/>
    </person>
    <person id="159" depart="7.95">
        <walk edges="-gneE14 gneE23"/>
    </person>
    <person id="160" depart="8.00">
        <walk edges="-gneE26 -gneE13 -gneE12 gneE14 gneE15"/>
    </person>
    <person id="164" depart="8.20">
        <walk edges="gneE22 -gneE12 -gneE13 -gneE26"/>
    </person>
    <person id="165" depart="8.25">
        <walk edges="-gneE26 -gneE13 -gneE12 gneE22"/>
    </person>
    <person id="166" depart="8.30">
        <walk edges="-gneE14 gneE23"/>
    </person>
    <person id="167" depart="8.35">
        <walk edges="gneE22 -gneE12 -gneE13 -gneE26"/>
    </person>
    <person id="168" depart="8.40">
        <walk edges="N5-J3 gneE30 -gneE30"/>
    </person>
    <person id="169" depart="8.45">
        <walk edges="gneE22 gneE12 gneE13"/>
    </person>
    <person id="174" depart="8.70">
        <walk edges="N1-J1 J1-J2 J2-N3"/>
    </person>
    <person id="176" depart="8.80">
        <walk edges="gneE29 -gneE29 gneE26"/>
    </person>
    <person id="179" depart="8.95">
        <walk edges="gneE14 gneE12 gneE13 -gneE28 gneE28"/>
    </person>
    <person id="182" depart="9.10">
        <walk edges="gneE14 gneE12 gneE13 -gneE28"/>
    </person>
    <person id="190" depart="9.50">
        <walk edges="-gneE17 -gneE15 -gneE14 J4-N7"/>
    </person>
    <person id="191" depart="9.55">
        <walk edges="-gneE12 -gneE14"/>
    </person>
    <person id="194" depart="9.70">
        <walk edges="J2-N3 J1-J2 J1-N1"/>
    </person>
    <person id="195" depart="9.75">
        <walk edges="J4-N7 gneE12 gneE13 -gneE28 gneE28"/>
    </person>
    <person id="207" depart="10.35">
        <walk edges="-gneE17 -gneE15 -gneE14 -gneE12 -gneE13"/>
    </person>
    <person id="209" depart="10.45">
        <walk edges="gneE15 gneE14 -gneE12 -gneE13 gneE29"/>
    </person>
    <person id="214" depart="10.70">
        <walk edges="gneE15 gneE14 -gneE12 -gneE13"/>
    </person>
    <person id="215" depart="10.75">
        <walk edges="-gneE26 gneE13 gneE12 N7-J4"/>
    </person>
    <person id="220" depart="11.00">
        <walk edges="N4-J2 J2-J1"/>
    </person>
    <person id="221" depart="11.05">
        <walk edges="N4-J2 J2-N3"/>
    </person>
    <person id="223" depart="11.15">
        <walk edges="-gneE12 -gneE14"/>
    </person>
    <person id="224" depart="11.20">
        <walk edges="-gneE12"/>
    </person>
    <person id="225" depart="11.25">
        <walk edges="N3-J2 J2-J1"/>
    </person>
    <person id="226" depart="11.30">
        <walk edges="gneE28 -gneE28 gneE13 gneE12 gneE14"/>
    </person>
    <person id="227" depart="11.35">
        <walk edges="-gneE14 gneE12 gneE13 -gneE29"/>
    </person>
    <person id="228" depart="11.40">
        <walk edges="gneE23 N7-J4"/>
    </person>
    <person id="231" depart="11.55">
        <walk edges="-gneE13 -gneE12 -gneE14"/>
    </person>
    <person id="236" depart="11.80">
        <walk edges="-gneE29"/>
    </person>
    <person id="239" depart="11.95">
        <walk edges="J2-J1 J2-N4"/>
    </person>
    <person id="240" depart="12.00">
        <walk edges="-gneE29 -gneE13"/>
    </person>
    <person id="241" depart="12.05">
        <walk edges="-gneE15 -gneE14 gneE12 gneE13 -gneE28 gneE28"/>
    </person>
    <person id="245" depart="12.25">
        <walk edges="N1-J1 N2-J1"/>
    </person>
    <person id="248" depart="12.40">
        <walk edges="J2-N3 J1-J2 N1-J1"/>
    </person>
    <person id="249" depart="12.45">
        <walk edges="gneE28 -gneE28 gneE13 gneE12 gneE14 gneE15 gneE17"/>
    </person>
    <person id="250" depart="12.50">
        <walk edges="gneE14 -gneE12"/>
    </person>
    <person id="252" depart="12.60">
        <walk edges="gneE22 gneE12 gneE13 gneE26"/>
    </person>
    <person id="253" depart="12.65">
        <walk edges="N2-J1 J1-J2 N3-J2"/>
    </person>
    <person id="256" depart="12.80">
        <walk edges="gneE22 -gneE12 -gneE13 -gneE26"/>
    </person>
    <person id="257" depart="12.85">
        <walk edges="N5-J3 gneE30"/>
    </person>
    <person id="259" depart="12.95">
        <walk edges="N4-J2 N3-J2"/>
    </person>
    <person id="263" depart="13.15">
        <walk edges="gneE14 -gneE12 -gneE13 gneE29"/>
    </person>
    <person id="265" depart="13.25">
        <walk edges="-gneE15 -gneE14 gneE12 gneE13 -gneE28"/>
    </person>
    <person id="267" depart="13.35">
        <walk edges="gneE26 gneE13 gneE12 -gneE14 -gneE15 -gneE17"/>
    </person>
    <person id="269" depart="13.45">
        <walk edges="-gneE14 -gneE15 gneE17"/>
    </person>
    <person id="273" depart="13.65">
        <walk edges="gneE14 gneE12 gneE13 gneE26"/>
    </person>
    <person id="276" depart="13.80">
        <walk edges="N3-J2 J1-J2"/>
    </person>
    <person id="277" depart="13.85">
        <walk edges="gneE17 gneE15 gneE14 N7-J4"/>
    </person>
    <person id="278" depart="13.90">
        <walk edges="-gneE26 gneE28"/>
    </person>
    <person id="281" depart="14.05">
        <walk edges="-gneE29 -gneE13 -gneE12 gneE23"/>
    </person>
    <person id="283" depart="14.15">
        <walk edges="-gneE14 -gneE15 gneE17"/>
    </person>
    <person id="284" depart="14.20">
        <walk edges="N7-J4 -gneE12 -gneE13"/>
    </person>
    <person id="285" depart="14.25">
        <walk edges="-gneE13 gneE26"/>
    </person>
    <person id="289" depart="14.45">
        <walk edges="gneE30 J3-N6"/>
    </person>
    <person id="290" depart="14.50">
        <walk edges="-gneE26 -gneE28"/>
    </person>
    <person id="291" depart="14.55">
        <walk edges="gneE22 -gneE12 -gneE13"/>
    </person>
    <person id="292" depart="14.60">
        <walk edges="-gneE26 -gneE28"/>
    </person>
    <person id="294" depart="14.70">
        <walk edges="N7-J4 -gneE12 -gneE13"/>
    </person>
    <person id="302" depart="15.10">
        <walk edges="gneE29 -gneE13 -gneE12 gneE14 gneE15"/>
    </person>
    <person id="304" depart="15.20">
        <walk edges="-gneE26 -gneE29"/>
    </person>
    <person id="308" depart="15.40">
        <walk edges="N3-J2 J1-J2 N1-J1"/>
    </person>
    <person id="310" depart="15.50">
        <walk edges="J3-N5 N5-J3"/>
    </person>
    <person id="311" depart="15.55">
        <walk edges="gneE23"/>
    </person>
    <person id="312" depart="15.60">
        <walk edges="-gneE29 gneE13 gneE12 N7-J4"/>
    </person>
    <person id="313" depart="15.65">
        <walk edges="J4-N7"/>
    </person>
    <person id="314" depart="15.70">
        <walk edges="-gneE28 gneE13 gneE12 gneE14 gneE15 gneE17"/>
    </person>
    <person id="316" depart="15.80">
        <walk edges="-gneE15 -gneE14 gneE12 gneE13 -gneE28 gneE28"/>
    </person>
    <person id="320" depart="16.00">
        <walk edges="N6-J3 gneE30"/>
    </person>
    <person id="323" depart="16.15">
        <walk edges="-gneE12 gneE12 gneE13"/>
    </person>
    <person id="325" depart="16.25">
        <walk edges="N7-J4 gneE12 gneE13 -gneE29"/>
    </person>
    <person id="326" depart="16.30">
        <walk edges="J4-N7 gneE12 gneE13 -gneE28 gneE28"/>
    </person>
    <person id="327" depart="16.35">
        <walk edges="gneE13 gneE12 gneE14"/>
    </person>
    <person id="331" depart="16.55">
        <walk edges="-gneE26 -gneE29"/>
    </person>
    <person id="332" depart="16.60">
        <walk edges="gneE12 -gneE12"/>
    </person>
    <person id="334" depart="16.70">
        <walk edges="gneE13 -gneE26"/>
    </person>
    <person id="336" depart="16.80">
        <walk edges="gneE15 gneE14 -gneE12 -gneE13 gneE29"/>
    </person>
    <person id="338" depart="16.90">
        <walk edges="-gneE26 gneE13 gneE12 N7-J4"/>
    </person>
    <person id="341" depart="17.05">
        <walk edges="gneE12 -gneE14 -gneE15 -gneE17"/>
    </person>
    <person id="342" depart="17.10">
        <walk edges="N7-J4 gneE14"/>
    </person>
    <person id="345" depart="17.25">
        <walk edges="gneE22 -gneE12 -gneE13 -gneE29"/>
    </person>
    <person id="350" depart="17.50">
        <walk edges="-gneE28 gneE13 gneE12 gneE14"/>
    </person>
    <person id="351" depart="17.55">
        <walk edges="J4-N7 gneE14"/>
    </person>
    <person id="356" depart="17.80">
        <walk edges="J2-J1 J2-N3"/>
    </person>
    <person id="360" depart="18.00">
        <walk edges="gneE26 gneE13 gneE12 -gneE14 -gneE15"/>
    </person>
    <person id="361" depart="18.05">
        <walk edges="-gneE14 gneE12 gneE13 gneE29"/>
    </person>
    <person id="364" depart="18.20">
        <walk edges="gneE15 gneE14 gneE12 gneE13 -gneE28"/>
    </person>
    <person id="368" depart="18.40">
        <walk edges="gneE26 gneE28"/>
    </person>
    <person id="370" depart="18.50">
        <walk edges="gneE23"/>
    </person>
    <person id="371" depart="18.55">
        <walk edges="-gneE29 gneE13"/>
    </person>
    <person id="372" depart="18.60">
        <walk edges="N7-J4 gneE14"/>
    </person>
    <person id="383" depart="19.15">
        <walk edges="J1-J2 N4-J2"/>
    </person>
    <person id="384" depart="19.20">
        <walk edges="-gneE15 -gneE17"/>
    </person>
    <person id="385" depart="19.25">
        <walk edges="J2-J1 J2-N3"/>
    </person>
    <person id="386" depart="19.30">
        <walk edges="-gneE15 -gneE14 gneE12 gneE13 -gneE26"/>
    </person>
    <person id="388" depart="19.40">
        <walk edges="-gneE26 -gneE29 gneE29"/>
    </person>
    <person id="389" depart="19.45">
        <walk edges="J4-N7 gneE14 gneE15 gneE17"/>
    </person>
    <person id="398" depart="19.90">
        <walk edges="-gneE12"/>
    </person>
    <person id="399" depart="19.95">
        <walk edges="-gneE12 gneE23"/>
    </person>
    <person id="400" depart="20.00">
        <walk edges="-gneE28 gneE13 gneE12 -gneE14 -gneE15 -gneE17"/>
    </person>
    <person id="403" depart="20.15">
        <walk edges="-gneE30 gneE30 N5-J3"/>
    </person>
    <person id="405" depart="20.25">
        <walk edges="-gneE15 -gneE17"/>
    </person>
    <person id="407" depart="20.35">
        <walk edges="gneE13 -gneE13"/>
    </person>
    <person id="408" depart="20.40">
        <walk edges="-gneE17 -gneE15 -gneE14 J4-N7"/>
    </person>
    <person id="410" depart="20.50">
        <walk edges="J1-N2"/>
    </person>
    <person id="417" depart="20.85">
        <walk edges="N2-J1 J1-J2 N4-J2"/>
    </person>
    <person id="420" depart="21.00">
        <walk edges="-gneE26 gneE26"/>
    </person>
    <person id="421" depart="21.05">
        <walk edges="J4-N7 gneE14"/>
    </person>
    <person id="423" depart="21.15">
        <walk edges="J1-N2 J1-J2 J2-N3"/>
    </person>
    <person id="430" depart="21.50">
        <walk edges="-gneE14 gneE12 gneE13 gneE26"/>
    </person>
    <person id="432" depart="21.60">
        <walk edges="J4-N7 gneE23"/>
    </person>
    <person id="434" depart="21.70">
        <walk edges="-gneE28 gneE13 gneE12 J4-N7"/>
    </person>
    <person id="435" depart="21.75">
        <walk edges="gneE14 gneE12 gneE13"/>
    </person>
    <person id="436" depart="21.80">
        <walk edges="gneE22"/>
    </person>
    <person id="437" depart="21.85">
        <walk edges="N2-J1 J1-N1"/>
    </person>
    <person id="440" depart="22.00">
        <walk edges="gneE29 -gneE13 -gneE12 gneE14 gneE15 gneE17"/>
    </person>
    <person id="456" depart="22.80">
        <walk edges="J2-N3 J2-J1"/>
    </person>
    <person id="458" depart="22.90">
        <walk edges="-gneE14 -gneE15 -gneE17"/>
    </person>
    <person id="459" depart="22.95">
        <walk edges="gneE29"/>
    </person>
    <person id="461" depart="23.05">
        <walk edges="gneE15 gneE14 N7-J4"/>
    </person>
    <person id="466" depart="23.30">
        <walk edges="N7-J4 gneE14 gneE15"/>
    </person>
    <person id="467" depart="23.35">
        <walk edges="-gneE12 -gneE13 -gneE28"/>
    </person>
    <person id="468" depart="23.40">
        <walk edges="N7-J4 -gneE12 -gneE13"/>
    </person>
    <person id="470" depart="23.50">
        <walk edges="-gneE15"/>
    </person>
    <person id="471" depart="23.55">
        <walk edges="N2-J1"/>
    </person>
    <person id="474" depart="23.70">
        <walk edges="gneE22 -gneE14"/>
    </person>
    <person id="477" depart="23.85">
        <walk edges="J1-J2 N3-J2"/>
    </person>
    <person id="478" depart="23.90">
        <walk edges="-gneE28 gneE13 gneE12"/>
    </person>
    <person id="480" depart="24.00">
        <walk edges="-gneE17 gneE15"/>
    </person>
    <person id="481" depart="24.05">
        <walk edges="gneE12 N7-J4"/>
    </person>
    <person id="482" depart="24.10">
        <walk edges="J4-N7 -gneE12 -gneE13"/>
    </person>
    <person id="485" depart="24.25">
        <walk edges="J3-N5 N5-J3"/>
    </person>
    <person id="489" depart="24.45">
        <walk edges="gneE15 gneE17"/>
    </person>
    <person id="492" depart="24.60">
        <walk edges="J3-N5 -gneE30"/>
    </person>
    <person id="493" depart="24.65">
        <walk edges="J4-N7 -gneE14 -gneE15 -gneE17"/>
    </person>
    <person id="494" depart="24.70">
        <walk edges="gneE15 -gneE15 -gneE14"/>
    </person>
    <person id="496" depart="24.80">
        <walk edges="gneE17 gneE15 gneE14 gneE12 gneE13 -gneE28 gneE28"/>
    </person>
    <person id="497" depart="24.85">
        <walk edges="N4-J2 J2-J1"/>
    </person>
    <person id="507" depart="25.35">
        <walk edges="N7-J4 -gneE14"/>
    </person>
    <person id="509" depart="25.45">
        <walk edges="gneE22 -gneE12 -gneE13 -gneE29"/>
    </person>
    <person id="512" depart="25.60">
        <walk edges="gneE29 -gneE29 -gneE26"/>
    </person>
    <person id="514" depart="25.70">
        <walk edges="-gneE29 gneE29"/>
    </person>
    <person id="516" depart="25.80">
        <walk edges="-gneE13 -gneE12 -gneE14 -gneE15"/>
    </person>
    <person id="520" depart="26.00">
        <walk edges="gneE17 gneE15 gneE14 gneE22"/>
    </person>
    <person id="522" depart="26.10">
        <walk edges="-gneE17 -gneE15 -gneE14 gneE22"/>
    </person>
    <person id="524" depart="26.20">
        <walk edges="-gneE26 gneE13"/>
    </person>
    <person id="527" depart="26.35">
        <walk edges="gneE23"/>
    </person>
    <person id="534" depart="26.70">
        <walk edges="gneE13 gneE12 gneE23"/>
    </person>
    <person id="535" depart="26.75">
        <walk edges="J4-N7 gneE14 gneE15 gneE17"/>
    </person>
    <person id="544" depart="27.20">
        <walk edges="gneE15 gneE14 gneE12 gneE13"/>
    </person>
    <person id="545" depart="27.25">
        <walk edges="-gneE17 -gneE15 -gneE14"/>
    </person>
    <person id="550" depart="27.50">
        <walk edges="-gneE15 -gneE14 -gneE12"/>
    </person>
    <person id="551" depart="27.55">
        <walk edges="-gneE14 -gneE15"/>
    </person>
    <person id="554" depart="27.70">
        <walk edges="gneE15 gneE14 -gneE12"/>
    </person>
    <person id="556" depart="27.80">
        <walk edges="gneE13 gneE12 gneE14 gneE15"/>
    </person>
    <person id="557" depart="27.85">
        <walk edges="J2-N4 J2-N3"/>
    </person>
    <person id="563" depart="28.15">
        <walk edges="J1-N1 N2-J1"/>
    </person>
    <person id="564" depart="28.20">
        <walk edges="-gneE12 J4-N7"/>
    </person>
    <person id="571" depart="28.55">
        <walk edges="J2-N4 J1-J2 N1-J1"/>
    </person>
    <person id="576" depart="28.80">
        <walk edges="gneE15 gneE14 -gneE12"/>
    </person>
    <person id="577" depart="28.85">
        <walk edges="gneE23 J4-N7"/>
    </person>
    <person id="581" depart="29.05">
        <walk edges="J2-N4 J1-J2 N2-J1"/>
    </person>
    <person id="582" depart="29.10">
        <walk edges="gneE14 gneE12 gneE13 -gneE28"/>
    </person>
    <person id="587" depart="29.35">
        <walk edges="gneE17"/>
    </person>
    <person id="594" depart="29.70">
        <walk edges="N5-J3 gneE30 -gneE30"/>
    </person>
    <person id="599" depart="29.95">
        <walk edges="gneE23 gneE12 gneE13"/>
    </person>
    <person id="601" depart="30.05">
        <walk edges="N3-J2"/>
    </person>
    <person id="602" depart="30.10">
        <walk edges="J2-N3 N4-J2"/>
    </person>
    <person id="603" depart="30.15">
        <walk edges="N5-J3 J3-N5"/>
    </person>
    <person id="605" depart="30.25">
        <walk edges="gneE29 gneE13 gneE12 -gneE14 -gneE15"/>
    </person>
    <person id="607" depart="30.35">
        <walk edges="N1-J1 J1-J2 J2-N4"/>
    </person>
    <person id="610" depart="30.50">
        <walk edges="-gneE28 gneE13"/>
    </person>
    <person id="611" depart="30.55">
        <walk edges="-gneE17 -gneE15"/>
    </person>
    <person id="612" depart="30.60">
        <walk edges="gneE28 -gneE28 gneE13 gneE12 gneE14 gneE15"/>
    </person>
    <person id="613" depart="30.65">
        <walk edges="-gneE28 gneE13 gneE12 -gneE14 -gneE15 -gneE17"/>
    </person>
    <person id="616" depart="30.80">
        <walk edges="J4-N7 gneE12 gneE13 -gneE29"/>
    </person>
    <person id="617" depart="30.85">
        <walk edges="-gneE14 gneE12 gneE13 -gneE29"/>
    </person>
    <person id="618" depart="30.90">
        <walk edges="gneE29 gneE13 gneE12 J4-N7"/>
    </person>
    <person id="619" depart="30.95">
        <walk edges="gneE17 gneE15 gneE14 N7-J4"/>
    </person>
    <person id="620" depart="31.00">
        <walk edges="gneE22 gneE14"/>
    </person>
    <person id="622" depart="31.10">
        <walk edges="gneE30 J3-N5"/>
    </person>
    <person id="624" depart="31.20">
        <walk edges="gneE14 -gneE12 -gneE13"/>
    </person>
    <person id="628" depart="31.40">
        <walk edges="-gneE14 gneE12 gneE13 -gneE26"/>
    </person>
    <person id="629" depart="31.45">
        <walk edges="gneE14 N7-J4"/>
    </person>
    <person id="631" depart="31.55">
        <walk edges="gneE15 gneE14 -gneE12 -gneE13 -gneE26"/>
    </person>
    <person id="636" depart="31.80">
        <walk edges="-gneE14 gneE12 gneE13"/>
    </person>
    <person id="637" depart="31.85">
        <walk edges="-gneE15 -gneE14 gneE14"/>
    </person>
    <person id="640" depart="32.00">
        <walk edges="-gneE28 -gneE13"/>
    </person>
    <person id="642" depart="32.10">
        <walk edges="N1-J1 J1-J2 J2-N3"/>
    </person>
    <person id="645" depart="32.25">
        <walk edges="J1-J2 J1-N1"/>
    </person>
    <person id="646" depart="32.30">
        <walk edges="-gneE17 -gneE15 -gneE14 -gneE12 -gneE13"/>
    </person>
    <person id="648" depart="32.40">
        <walk edges="-gneE14 gneE12 gneE13 -gneE28 gneE28"/>
    </person>
    <person id="649" depart="32.45">
        <walk edges="gneE28 -gneE28 gneE13 gneE12 -gneE14 -gneE15"/>
    </person>
    <person id="652" depart="32.60">
        <walk edges="J2-N3 J2-J1"/>
    </person>
    <person id="654" depart="32.70">
        <walk edges="gneE17 -gneE15 -gneE14"/>
    </person>
    <person id="657" depart="32.85">
        <walk edges="J4-N7 gneE12 gneE13 -gneE28"/>
    </person>
    <person id="663" depart="33.15">
        <walk edges="N1-J1 J1-J2 J2-N3"/>
    </person>
    <person id="667" depart="33.35">
        <walk edges="N2-J1 J1-J2 J2-N4"/>
    </person>
    <person id="670" depart="33.50">
        <walk edges="gneE13"/>
    </person>
    <person id="671" depart="33.55">
        <walk edges="gneE12 gneE13 -gneE13"/>
    </person>
    <person id="673" depart="33.65">
        <walk edges="gneE30"/>
    </person>
    <person id="677" depart="33.85">
        <walk edges="-gneE14 gneE23"/>
    </person>
    <person id="682" depart="34.10">
        <walk edges="J1-J2 J1-N1"/>
    </person>
    <person id="684" depart="34.20">
        <walk edges="gneE23 -gneE12 -gneE13 gneE29"/>
    </person>
    <person id="690" depart="34.50">
        <walk edges="N1-J1 J1-J2 N3-J2"/>
    </person>
    <person id="691" depart="34.55">
        <walk edges="N2-J1 J1-N2"/>
    </person>
    <person id="692" depart="34.60">
        <walk edges="N3-J2 J2-J1"/>
    </person>
    <person id="694" depart="34.70">
        <walk edges="gneE23 -gneE14 -gneE15 -gneE17"/>
    </person>
    <person id="696" depart="34.80">
        <walk edges="gneE14 -gneE12 -gneE13 -gneE29"/>
    </person>
    <person id="697" depart="34.85">
        <walk edges="N4-J2 J2-J1 N1-J1"/>
    </person>
    <person id="702" depart="35.10">
        <walk edges="gneE22 gneE14 gneE15"/>
    </person>
    <person id="712" depart="35.60">
        <walk edges="-gneE17 -gneE15 -gneE14 -gneE12"/>
    </person>
    <person id="719" depart="35.95">
        <walk edges="-gneE14 -gneE12 -gneE13"/>
    </person>
    <person id="720" depart="36.00">
        <walk edges="gneE23 -gneE14 -gneE15"/>
    </person>
    <person id="721" depart="36.05">
        <walk edges="J2-J1 J2-N3"/>
    </person>
    <person id="722" depart="36.10">
        <walk edges="gneE14 -gneE12 -gneE13 gneE29"/>
    </person>
    <person id="724" depart="36.20">
        <walk edges="gneE14 gneE23"/>
    </person>
    <person id="727" depart="36.35">
        <walk edges="-gneE14 gneE12 gneE13 -gneE28"/>
    </person>
    <person id="728" depart="36.40">
        <walk edges="J1-J2"/>
    </person>
    <person id="731" depart="36.55">
        <walk edges="J2-J1 J1-N2"/>
    </person>
    <person id="732" depart="36.60">
        <walk edges="gneE12 gneE13 -gneE13"/>
    </person>
    <person id="735" depart="36.75">
        <walk edges="gneE26 gneE13 gneE12"/>
    </person>
    <person id="742" depart="37.10">
        <walk edges="-gneE12 -gneE13 -gneE29"/>
    </person>
    <person id="743" depart="37.15">
        <walk edges="gneE26 -gneE29 gneE29"/>
    </person>
    <person id="750" depart="37.50">
        <walk edges="-gneE29 -gneE13 -gneE12 gneE14 gneE15 gneE17"/>
    </person>
    <person id="751" depart="37.55">
        <walk edges="-gneE12 -gneE13 -gneE29"/>
    </person>