<routes>
	<vType id="car_1" length="4.754264" width="1.596668" accel="2.6" 
	decel="4.5" apparentDecel="4.5" emergencyDecel="4.5" sigma="0.5" 
	tau="1" minGap="2.5" speedFactor="normc(0.58,0.028,0.5,0.67)" color="24,0,255,255" 
	vClass="passenger" guiShape="passenger" impatience="0" 
	laneChangeModel="SL2015" carFollowModel="Krauss" latAlignment="center" 
	minGapLat="0.1" maxSpeedLat="1"/>
	
	<vType id="car_2" length="4.173896" width="1.77515" accel="2.6" decel="4.5"
	apparentDecel="4.5"  emergencyDecel="4.5" sigma="0.5" tau="1" minGap="2.5"
	speedFactor="normc(0.58,0.028,0.5,0.67)" color="62,62,62,235" vClass="passenger" 
	guiShape="passenger" impatience="0" laneChangeModel="SL2015" 
	carFollowModel="Krauss" latAlignment="center" minGapLat="0.1" 
	maxSpeedLat="1"/>
	
	<vType id="car_3" length="4.173896" width="1.77515" accel="2.6" decel="4.5"
	apparentDecel="4.5"  emergencyDecel="4.5" sigma="0.5" tau="1" minGap="2.5" 
	speedFactor="normc(0.58,0.028,0.5,0.67)" color="255,255,255,186" vClass="passenger" 
	guiShape="passenger" impatience="0" laneChangeModel="SL2015" 
	carFollowModel="Krauss" latAlignment="center" minGapLat="0.1" 
	maxSpeedLat="1"/>
	
	<vType id="truck_1" length="6.174" width="2.166908" accel="2" decel="4.5" 
	apparentDecel="4"  emergencyDecel="4.5" sigma="0.5" tau="1" minGap="3" 
	maxSpeed="16.7" color="255,0,0,255" vClass="passenger" 
	guiShape="truck" impatience="0" laneChangeModel="SL2015" 
	carFollowModel="Krauss" latAlignment="center" minGapLat="0.1" 
	maxSpeedLat="1"/>
	
	
	<vType id="motorbike_1" length="2.085" width="0.715" accel="2.6" decel="5" apparentDecel="4.5"  emergencyDecel="5" sigma="0.5" tau="1" minGap="1.5" maxSpeed="4" speedDev="0" color="0,128,0,255" vClass="passenger" guiShape="motorcycle" impatience="0" laneChangeModel="SL2015" carFollowModel="Krauss" latAlignment="center" minGapLat="0.1" maxSpeedLat="1"/>
	<vType id="motorbike_2" length="2.085" width="0.715" accel="2.6" decel="5" apparentDecel="4.5"  emergencyDecel="5" sigma="0.5" tau="1" minGap="1.5" maxSpeed="4" speedDev="0" color="0,128,0,255" vClass="passenger" guiShape="motorcycle" impatience="0" laneChangeModel="SL2015" carFollowModel="Krauss" latAlignment="right" minGapLat="0.1" maxSpeedLat="1"/>
	<vType id="motorbike_3" length="2.085" width="0.715" accel="2.6" decel="5" apparentDecel="4.5"  emergencyDecel="5" sigma="0.5" tau="1" minGap="1.5" maxSpeed="4" speedDev="0" color="0,128,0,255" vClass="passenger" guiShape="motorcycle" impatience="0" laneChangeModel="SL2015" carFollowModel="Krauss" latAlignment="left" minGapLat="0.1" maxSpeedLat="1"/>
	<vType id="self_car" length="4.5" width="1.8" accel="3.5" decel="2.2" sigma="1.0" guiShape="passenger/wagon" color="1,0,1" maxSpeed="30"/>

	<vType id="person_1" length="0.21" width="0.48" maxSpeed="1.79" vClass="pedestrian" latAlignment="right" />
	<vType id="person_2" length="0.21" width="0.48" maxSpeed="1.59" vClass="pedestrian" latAlignment="arbitrary" />
	<vType id="person_3" length="0.21" width="0.48" maxSpeed="1.99" vClass="pedestrian" latAlignment="arbitrary" />

	<vType id="bicycle_1" length="1" width="0.48" maxSpeed="2.39" vClass="bicycle" latAlignment="right" />
	<vType id="bicycle_2" length="1" width="0.48" maxSpeed="2.39" vClass="bicycle" latAlignment="arbitrary" />
	<vType id="bicycle_3" length="1" width="0.48" maxSpeed="2.39" vClass="bicycle" latAlignment="arbitrary" />


<route id="self_route" edges="gneE12 gneE1" />
<route id="backup_route" edges="gneE34 gneE31" />
	
</routes>