<?xml version="1.0" encoding="UTF-8"?>

<!-- generated on 10/06/20 21:37:13 by Eclipse SUMO netedit Version 1.6.0
<configuration xmlns:xsi="http://www.w3.org/2001/XMLSchema-instance" xsi:noNamespaceSchemaLocation="http://sumo.dlr.de/xsd/netconvertConfiguration.xsd">

    <input>
        <sumo-net-file value="D:\codecode\LasVSim-gui%200.2.1.200901_alpha\Map\Map1_Urban%20Road\grid-map.net.xml"/>
    </input>

    <output>
        <output-file value="D:\codecode\LasVSim-gui%200.2.1.200901_alpha\Map\Map1_Urban%20Road\grid-map.net.xml"/>
    </output>

    <processing>
        <geometry.min-radius.fix.railways value="false"/>
        <geometry.max-grade.fix value="false"/>
        <offset.disable-normalization value="true"/>
        <lefthand value="false"/>
    </processing>

    <junctions>
        <no-internal-links value="false"/>
        <no-turnarounds value="true"/>
        <junctions.corner-detail value="0"/>
        <junctions.limit-turn-speed value="-1"/>
        <rectangular-lane-cut value="false"/>
    </junctions>

    <pedestrian>
        <walkingareas value="false"/>
    </pedestrian>

    <report>
        <aggregate-warnings value="5"/>
    </report>

</configuration>
-->

<net version="1.6" xmlns:xsi="http://www.w3.org/2001/XMLSchema-instance" xsi:noNamespaceSchemaLocation="http://sumo.dlr.de/xsd/net_file.xsd">

    <location netOffset="0.00,0.00" convBoundary="-3700.00,-1244.00,1244.00,1244.00" origBoundary="-10000000000.00,-10000000000.00,10000000000.00,10000000000.00" projParameter="!"/>

    <edge id=":1_w0" function="walkingarea">
        <lane id=":1_w0_0" index="0" allow="pedestrian" speed="1.00" length="27.00" width="5.00" shape="-611.00,-1244.00 -606.00,-1244.00 -638.00,-1244.00 -633.00,-1244.00"/>
    </edge>
    <edge id=":10_w0" function="walkingarea">
        <lane id=":10_w0_0" index="0" allow="pedestrian" speed="1.00" length="27.00" width="5.00" shape="-1244.00,-11.00 -1244.00,-16.00 -1244.00,16.00 -1244.00,11.00"/>
    </edge>
    <edge id=":11_0" function="internal">
        <lane id=":11_0_0" index="0" allow="pedestrian" speed="13.89" length="4.03" width="5.00" shape="-635.50,16.00 -635.66,14.91 -636.13,14.12 -636.91,13.66 -638.00,13.50"/>
    </edge>
    <edge id=":11_1" function="internal">
        <lane id=":11_1_0" index="0" allow="pedestrian" speed="13.89" length="32.00" width="5.00" shape="-635.50,16.00 -635.50,-16.00"/>
    </edge>
    <edge id=":11_2" function="internal">
        <lane id=":11_2_0" index="0" allow="bicycle" speed="13.89" length="5.44" width="3.50" shape="-631.25,16.00 -631.67,13.05 -632.94,10.94"/>
    </edge>
    <edge id=":11_3" function="internal">
        <lane id=":11_3_0" index="0" allow="bicycle" speed="13.89" length="32.00" width="3.50" shape="-631.25,16.00 -631.25,-16.00"/>
    </edge>
    <edge id=":11_4" function="internal">
        <lane id=":11_4_0" index="0" allow="bicycle" speed="13.89" length="3.28" shape="-631.25,16.00 -630.16,12.90"/>
    </edge>
    <edge id=":11_5" function="internal">
        <lane id=":11_5_0" index="0" disallow="pedestrian bicycle rail_electric rail_fast" speed="16.67" length="13.20" width="3.75" shape="-627.63,18.00 -628.27,12.59 -630.22,8.72 -633.00,6.73"/>
    </edge>
    <edge id=":11_6" function="internal">
        <lane id=":11_6_0" index="0" disallow="pedestrian bicycle rail_electric rail_fast" speed="16.67" length="34.00" width="3.75" shape="-623.88,18.00 -623.88,-16.00"/>
    </edge>
    <edge id=":11_7" function="internal">
        <lane id=":11_7_0" index="0" disallow="pedestrian bicycle rail_electric rail_fast" speed="16.67" length="2.02" width="3.75" shape="-623.88,18.00 -623.62,16.00"/>
    </edge>
    <edge id=":11_32" function="internal">
        <lane id=":11_32_0" index="0" allow="bicycle" speed="13.89" length="5.44" width="3.50" shape="-632.94,10.94 -635.05,9.67 -638.00,9.25"/>
    </edge>
    <edge id=":11_33" function="internal">
        <lane id=":11_33_0" index="0" allow="bicycle" speed="13.89" length="34.07" shape="-630.16,12.90 -628.55,8.33 -621.96,0.12 -613.70,-6.43 -606.00,-9.10"/>
    </edge>
    <edge id=":11_34" function="internal">
        <lane id=":11_34_0" index="0" disallow="pedestrian bicycle rail_electric rail_fast" speed="16.67" length="5.17" width="3.75" shape="-633.00,6.73 -633.46,6.40 -638.00,5.63"/>
    </edge>
    <edge id=":11_35" function="internal">
        <lane id=":11_35_0" index="0" disallow="pedestrian bicycle rail_electric rail_fast" speed="16.67" length="28.44" width="3.75" shape="-623.62,16.00 -622.76,9.30 -619.41,3.09 -613.82,-0.63 -606.00,-1.87"/>
    </edge>
    <edge id=":11_8" function="internal">
        <lane id=":11_8_0" index="0" allow="pedestrian" speed="13.89" length="4.03" width="5.00" shape="-606.00,13.50 -607.09,13.66 -607.88,14.13 -608.34,14.91 -608.50,16.00"/>
    </edge>
    <edge id=":11_9" function="internal">
        <lane id=":11_9_0" index="0" allow="pedestrian" speed="13.89" length="32.00" width="5.00" shape="-606.00,13.50 -638.00,13.50"/>
    </edge>
    <edge id=":11_10" function="internal">
        <lane id=":11_10_0" index="0" allow="bicycle" speed="13.89" length="5.44" width="3.50" shape="-606.00,9.25 -608.95,9.67 -611.06,10.94"/>
    </edge>
    <edge id=":11_11" function="internal">
        <lane id=":11_11_0" index="0" allow="bicycle" speed="13.89" length="32.00" width="3.50" shape="-606.00,9.25 -638.00,9.25"/>
    </edge>
    <edge id=":11_12" function="internal">
        <lane id=":11_12_0" index="0" allow="bicycle" speed="13.89" length="4.31" width="3.50" shape="-606.00,9.25 -610.07,7.83"/>
    </edge>
    <edge id=":11_13" function="internal">
        <lane id=":11_13_0" index="0" disallow="pedestrian bicycle rail_electric rail_fast" speed="16.67" length="13.20" width="3.75" shape="-604.00,5.63 -609.41,6.27 -613.28,8.22 -615.27,11.00"/>
    </edge>
    <edge id=":11_14" function="internal">
        <lane id=":11_14_0" index="0" disallow="pedestrian bicycle rail_electric rail_fast" speed="16.67" length="34.00" width="3.75" shape="-604.00,1.88 -638.00,1.87"/>
    </edge>
    <edge id=":11_15" function="internal">
        <lane id=":11_15_0" index="0" disallow="pedestrian bicycle rail_electric rail_fast" speed="16.67" length="8.00" width="3.75" shape="-604.00,1.88 -611.93,0.86"/>
    </edge>
    <edge id=":11_36" function="internal">
        <lane id=":11_36_0" index="0" allow="bicycle" speed="13.89" length="5.44" width="3.50" shape="-611.06,10.94 -612.33,13.05 -612.75,16.00"/>
    </edge>
    <edge id=":11_37" function="internal">
        <lane id=":11_37_0" index="0" allow="bicycle" speed="13.89" length="33.14" width="3.50" shape="-610.07,7.83 -613.70,6.55 -621.96,-0.04 -628.55,-8.30 -631.25,-16.00"/>
    </edge>
    <edge id=":11_38" function="internal">
        <lane id=":11_38_0" index="0" disallow="pedestrian bicycle rail_electric rail_fast" speed="16.67" length="5.17" width="3.75" shape="-615.27,11.00 -615.60,11.46 -616.38,16.00"/>
    </edge>
    <edge id=":11_39" function="internal">
        <lane id=":11_39_0" index="0" disallow="pedestrian bicycle rail_electric rail_fast" speed="16.67" length="22.46" width="3.75" shape="-611.93,0.86 -612.70,0.76 -618.91,-2.59 -622.63,-8.18 -623.88,-16.00"/>
    </edge>
    <edge id=":11_16" function="internal">
        <lane id=":11_16_0" index="0" allow="pedestrian" speed="13.89" length="4.28" width="5.00" shape="-608.50,-16.00 -608.34,-14.78 -607.88,-13.90 -607.09,-13.38 -606.00,-13.20"/>
    </edge>
    <edge id=":11_17" function="internal">
        <lane id=":11_17_0" index="0" allow="pedestrian" speed="13.89" length="32.00" width="5.00" shape="-608.50,-16.00 -608.50,16.00"/>
    </edge>
    <edge id=":11_18" function="internal">
        <lane id=":11_18_0" index="0" allow="bicycle" speed="13.89" length="5.55" shape="-612.75,-16.00 -612.33,-12.98 -611.06,-10.82"/>
    </edge>
    <edge id=":11_19" function="internal">
        <lane id=":11_19_0" index="0" allow="bicycle" speed="13.89" length="32.00" width="3.50" shape="-612.75,-16.00 -612.75,16.00"/>
    </edge>
    <edge id=":11_20" function="internal">
        <lane id=":11_20_0" index="0" allow="bicycle" speed="13.89" length="0.25" width="3.50" shape="-612.75,-16.00 -612.83,-15.76"/>
    </edge>
    <edge id=":11_21" function="internal">
        <lane id=":11_21_0" index="0" disallow="pedestrian bicycle rail_electric rail_fast" speed="16.67" length="13.20" width="3.75" shape="-616.38,-18.00 -615.73,-12.59 -613.78,-8.72 -611.00,-6.73"/>
    </edge>
    <edge id=":11_22" function="internal">
        <lane id=":11_22_0" index="0" disallow="pedestrian bicycle rail_electric rail_fast" speed="16.67" length="34.00" width="3.75" shape="-620.13,-18.00 -620.13,16.00"/>
    </edge>
    <edge id=":11_23" function="internal">
        <lane id=":11_23_0" index="0" disallow="pedestrian bicycle rail_electric rail_fast" speed="16.67" length="2.18" width="3.75" shape="-620.13,-18.00 -620.40,-15.84"/>
    </edge>
    <edge id=":11_40" function="internal">
        <lane id=":11_40_0" index="0" allow="bicycle" speed="13.89" length="5.46" shape="-611.06,-10.82 -608.95,-9.53 -606.00,-9.10"/>
    </edge>
    <edge id=":11_41" function="internal">
        <lane id=":11_41_0" index="0" allow="bicycle" speed="13.89" length="37.20" width="3.50" shape="-612.83,-15.76 -615.45,-8.30 -622.04,-0.04 -630.30,6.55 -638.00,9.25"/>
    </edge>
    <edge id=":11_42" function="internal">
        <lane id=":11_42_0" index="0" disallow="pedestrian bicycle rail_electric rail_fast" speed="16.67" length="5.17" width="3.75" shape="-611.00,-6.73 -610.54,-6.40 -606.00,-5.63"/>
    </edge>
    <edge id=":11_43" function="internal">
        <lane id=":11_43_0" index="0" disallow="pedestrian bicycle rail_electric rail_fast" speed="16.67" length="28.27" width="3.75" shape="-620.40,-15.84 -621.24,-9.30 -624.59,-3.09 -630.18,0.63 -638.00,1.87"/>
    </edge>
    <edge id=":11_24" function="internal">
        <lane id=":11_24_0" index="0" allow="pedestrian" speed="13.89" length="4.03" width="5.00" shape="-638.00,-13.50 -636.91,-13.66 -636.13,-14.13 -635.66,-14.91 -635.50,-16.00"/>
    </edge>
    <edge id=":11_25" function="internal">
        <lane id=":11_25_0" index="0" allow="pedestrian" speed="13.89" length="32.00" width="5.00" shape="-638.00,-13.50 -606.00,-13.20"/>
    </edge>
    <edge id=":11_26" function="internal">
        <lane id=":11_26_0" index="0" allow="bicycle" speed="13.89" length="5.44" width="3.50" shape="-638.00,-9.25 -635.05,-9.67 -632.94,-10.94"/>
    </edge>
    <edge id=":11_27" function="internal">
        <lane id=":11_27_0" index="0" allow="bicycle" speed="13.89" length="32.00" shape="-638.00,-9.25 -606.00,-9.10"/>
    </edge>
    <edge id=":11_28" function="internal">
        <lane id=":11_28_0" index="0" allow="bicycle" speed="13.89" length="4.31" width="3.50" shape="-638.00,-9.25 -633.93,-7.83"/>
    </edge>
    <edge id=":11_29" function="internal">
        <lane id=":11_29_0" index="0" disallow="pedestrian bicycle rail_electric rail_fast" speed="16.67" length="3.51" width="3.75" shape="-640.00,-5.63 -636.51,-6.04"/>
    </edge>
    <edge id=":11_30" function="internal">
        <lane id=":11_30_0" index="0" disallow="pedestrian bicycle rail_electric rail_fast" speed="16.67" length="34.00" width="3.75" shape="-640.00,-1.87 -606.00,-1.87"/>
    </edge>
    <edge id=":11_31" function="internal">
        <lane id=":11_31_0" index="0" disallow="pedestrian bicycle rail_electric rail_fast" speed="16.67" length="8.88" width="3.75" shape="-640.00,-1.87 -631.30,-0.76 -631.20,-0.70"/>
    </edge>
    <edge id=":11_44" function="internal">
        <lane id=":11_44_0" index="0" allow="bicycle" speed="13.89" length="5.44" width="3.50" shape="-632.94,-10.94 -631.67,-13.05 -631.25,-16.00"/>
    </edge>
    <edge id=":11_45" function="internal">
        <lane id=":11_45_0" index="0" allow="bicycle" speed="13.89" length="33.14" width="3.50" shape="-633.93,-7.83 -630.30,-6.55 -622.04,0.04 -615.45,8.30 -612.75,16.00"/>
    </edge>
    <edge id=":11_46" function="internal">
        <lane id=":11_46_0" index="0" disallow="pedestrian bicycle rail_electric rail_fast" speed="16.67" length="14.86" width="3.75" shape="-636.51,-6.04 -634.59,-6.27 -630.72,-8.22 -628.40,-11.46 -627.63,-16.00"/>
    </edge>
    <edge id=":11_47" function="internal">
        <lane id=":11_47_0" index="0" disallow="pedestrian bicycle rail_electric rail_fast" speed="16.67" length="21.58" width="3.75" shape="-631.20,-0.70 -625.09,2.59 -621.37,8.18 -620.13,16.00"/>
    </edge>
    <edge id=":11_c0" function="crossing" crossingEdges="gneE5 -gneE5">
        <lane id=":11_c0_0" index="0" allow="pedestrian" speed="1.00" length="22.00" width="4.00" shape="-611.00,14.00 -633.00,14.00"/>
    </edge>
    <edge id=":11_c1" function="crossing" crossingEdges="gneE12 -gneE0">
        <lane id=":11_c1_0" index="0" allow="pedestrian" speed="1.00" length="21.70" width="4.00" shape="-608.00,-10.70 -608.00,11.00"/>
    </edge>
    <edge id=":11_c2" function="crossing" crossingEdges="-gneE6 gneE6">
        <lane id=":11_c2_0" index="0" allow="pedestrian" speed="1.00" length="22.00" width="4.00" shape="-633.00,-14.00 -611.00,-14.00"/>
    </edge>
    <edge id=":11_c3" function="crossing" crossingEdges="gneE18 -gneE18">
        <lane id=":11_c3_0" index="0" allow="pedestrian" speed="1.00" length="22.00" width="4.00" shape="-636.00,11.00 -636.00,-11.00"/>
    </edge>
    <edge id=":11_w0" function="walkingarea">
        <lane id=":11_w0_0" index="0" allow="pedestrian" speed="1.00" length="4.04" width="5.00" shape="-634.00,11.00 -638.00,11.00 -638.00,16.00 -638.00,16.00 -633.00,16.00 -633.00,12.00"/>
    </edge>
    <edge id=":11_w1" function="walkingarea">
        <lane id=":11_w1_0" index="0" allow="pedestrian" speed="1.00" length="4.04" width="5.00" shape="-611.00,12.00 -611.00,16.00 -606.00,16.00 -606.00,16.00 -606.00,11.00 -610.00,11.00"/>
    </edge>
    <edge id=":11_w2" function="walkingarea">
        <lane id=":11_w2_0" index="0" allow="pedestrian" speed="1.00" length="4.17" width="5.00" shape="-610.00,-10.70 -606.00,-10.70 -606.00,-15.70 -606.00,-16.00 -611.00,-16.00 -611.00,-12.00"/>
    </edge>
    <edge id=":11_w3" function="walkingarea">
        <lane id=":11_w3_0" index="0" allow="pedestrian" speed="1.00" length="4.04" width="5.00" shape="-633.00,-12.00 -633.00,-16.00 -638.00,-16.00 -638.00,-16.00 -638.00,-11.00 -634.00,-11.00"/>
    </edge>
    <edge id=":12_0" function="internal">
        <lane id=":12_0_0" index="0" allow="pedestrian" speed="13.89" length="4.03" width="5.00" shape="-13.50,16.00 -13.66,14.91 -14.13,14.12 -14.91,13.66 -16.00,13.50"/>
    </edge>
    <edge id=":12_1" function="internal">
        <lane id=":12_1_0" index="0" allow="pedestrian" speed="13.89" length="32.00" width="5.00" shape="-13.50,16.00 -13.50,-16.00"/>
    </edge>
    <edge id=":12_2" function="internal">
        <lane id=":12_2_0" index="0" allow="bicycle" speed="13.89" length="5.44" width="3.50" shape="-9.25,16.00 -9.67,13.05 -10.94,10.94"/>
    </edge>
    <edge id=":12_3" function="internal">
        <lane id=":12_3_0" index="0" allow="bicycle" speed="13.89" length="32.00" width="3.50" shape="-9.25,16.00 -9.25,-16.00"/>
    </edge>
    <edge id=":12_4" function="internal">
        <lane id=":12_4_0" index="0" allow="bicycle" speed="13.89" length="4.52" width="3.50" shape="-9.25,16.00 -7.76,11.73"/>
    </edge>
    <edge id=":12_5" function="internal">
        <lane id=":12_5_0" index="0" disallow="pedestrian bicycle rail_electric rail_fast" speed="16.67" length="13.20" width="3.75" shape="-5.63,18.00 -6.27,12.59 -8.22,8.72 -11.00,6.73"/>
    </edge>
    <edge id=":12_6" function="internal">
        <lane id=":12_6_0" index="0" disallow="pedestrian bicycle rail_electric rail_fast" speed="16.67" length="34.00" width="3.75" shape="-1.87,18.00 -1.87,-16.00"/>
    </edge>
    <edge id=":12_7" function="internal">
        <lane id=":12_7_0" index="0" disallow="pedestrian bicycle rail_electric rail_fast" speed="16.67" length="7.59" width="3.75" shape="-1.87,18.00 -0.91,10.47"/>
    </edge>
    <edge id=":12_32" function="internal">
        <lane id=":12_32_0" index="0" allow="bicycle" speed="13.89" length="5.44" width="3.50" shape="-10.94,10.94 -13.05,9.67 -16.00,9.25"/>
    </edge>
    <edge id=":12_33" function="internal">
        <lane id=":12_33_0" index="0" allow="bicycle" speed="13.89" length="32.93" width="3.50" shape="-7.76,11.73 -6.55,8.30 0.04,0.04 8.30,-6.55 16.00,-9.25"/>
    </edge>
    <edge id=":12_34" function="internal">
        <lane id=":12_34_0" index="0" disallow="pedestrian bicycle rail_electric rail_fast" speed="16.67" length="5.17" width="3.75" shape="-11.00,6.73 -11.46,6.40 -16.00,5.63"/>
    </edge>
    <edge id=":12_35" function="internal">
        <lane id=":12_35_0" index="0" disallow="pedestrian bicycle rail_electric rail_fast" speed="16.67" length="22.87" width="3.75" shape="-0.91,10.47 -0.76,9.30 2.59,3.09 8.18,-0.63 16.00,-1.87"/>
    </edge>
    <edge id=":12_8" function="internal">
        <lane id=":12_8_0" index="0" allow="pedestrian" speed="13.89" length="4.03" width="5.00" shape="16.00,13.50 14.91,13.66 14.12,14.13 13.66,14.91 13.50,16.00"/>
    </edge>
    <edge id=":12_9" function="internal">
        <lane id=":12_9_0" index="0" allow="pedestrian" speed="13.89" length="32.00" width="5.00" shape="16.00,13.50 -16.00,13.50"/>
    </edge>
    <edge id=":12_10" function="internal">
        <lane id=":12_10_0" index="0" allow="bicycle" speed="13.89" length="5.44" width="3.50" shape="16.00,9.25 13.05,9.67 10.94,10.94"/>
    </edge>
    <edge id=":12_11" function="internal">
        <lane id=":12_11_0" index="0" allow="bicycle" speed="13.89" length="32.00" width="3.50" shape="16.00,9.25 -16.00,9.25"/>
    </edge>
    <edge id=":12_12" function="internal">
        <lane id=":12_12_0" index="0" allow="bicycle" speed="13.89" length="3.28" width="3.50" shape="16.00,9.25 12.90,8.16"/>
    </edge>
    <edge id=":12_13" function="internal">
        <lane id=":12_13_0" index="0" disallow="pedestrian bicycle rail_electric rail_fast" speed="16.67" length="13.20" width="3.75" shape="18.00,5.63 12.59,6.27 8.72,8.22 6.73,11.00"/>
    </edge>
    <edge id=":12_14" function="internal">
        <lane id=":12_14_0" index="0" disallow="pedestrian bicycle rail_electric rail_fast" speed="16.67" length="34.00" width="3.75" shape="18.00,1.87 -16.00,1.88"/>
    </edge>
    <edge id=":12_15" function="internal">
        <lane id=":12_15_0" index="0" disallow="pedestrian bicycle rail_electric rail_fast" speed="16.67" length="6.00" width="3.75" shape="18.00,1.87 12.05,1.11"/>
    </edge>
    <edge id=":12_36" function="internal">
        <lane id=":12_36_0" index="0" allow="bicycle" speed="13.89" length="5.44" width="3.50" shape="10.94,10.94 9.67,13.05 9.25,16.00"/>
    </edge>
    <edge id=":12_37" function="internal">
        <lane id=":12_37_0" index="0" allow="bicycle" speed="13.89" length="34.17" width="3.50" shape="12.90,8.16 8.30,6.55 0.04,-0.04 -6.55,-8.30 -9.25,-16.00"/>
    </edge>
    <edge id=":12_38" function="internal">
        <lane id=":12_38_0" index="0" disallow="pedestrian bicycle rail_electric rail_fast" speed="16.67" length="5.17" width="3.75" shape="6.73,11.00 6.40,11.46 5.63,16.00"/>
    </edge>
    <edge id=":12_39" function="internal">
        <lane id=":12_39_0" index="0" disallow="pedestrian bicycle rail_electric rail_fast" speed="16.67" length="24.46" width="3.75" shape="12.05,1.11 9.30,0.76 3.09,-2.59 -0.63,-8.18 -1.87,-16.00"/>
    </edge>
    <edge id=":12_16" function="internal">
        <lane id=":12_16_0" index="0" allow="pedestrian" speed="13.89" length="4.03" width="5.00" shape="13.50,-16.00 13.66,-14.91 14.13,-14.12 14.91,-13.66 16.00,-13.50"/>
    </edge>
    <edge id=":12_17" function="internal">
        <lane id=":12_17_0" index="0" allow="pedestrian" speed="13.89" length="32.00" width="5.00" shape="13.50,-16.00 13.50,16.00"/>
    </edge>
    <edge id=":12_18" function="internal">
        <lane id=":12_18_0" index="0" allow="bicycle" speed="13.89" length="5.44" width="3.50" shape="9.25,-16.00 9.67,-13.05 10.94,-10.94"/>
    </edge>
    <edge id=":12_19" function="internal">
        <lane id=":12_19_0" index="0" allow="bicycle" speed="13.89" length="32.00" width="3.50" shape="9.25,-16.00 9.25,16.00"/>
    </edge>
    <edge id=":12_20" function="internal">
        <lane id=":12_20_0" index="0" allow="bicycle" speed="13.89" length="4.34" width="3.50" shape="9.00,-16.00 8.41,-11.70"/>
    </edge>
    <edge id=":12_21" function="internal">
        <lane id=":12_21_0" index="0" disallow="pedestrian bicycle rail_electric rail_fast" speed="16.67" length="13.20" width="3.75" shape="5.63,-18.00 6.27,-12.59 8.22,-8.72 11.00,-6.73"/>
    </edge>
    <edge id=":12_22" function="internal">
        <lane id=":12_22_0" index="0" disallow="pedestrian bicycle rail_electric rail_fast" speed="16.67" length="34.00" width="3.75" shape="1.87,-18.00 1.87,16.00"/>
    </edge>
    <edge id=":12_23" function="internal">
        <lane id=":12_23_0" index="0" disallow="pedestrian bicycle rail_electric rail_fast" speed="16.67" length="8.88" width="3.75" shape="1.87,-18.00 0.76,-9.30 0.70,-9.20"/>
    </edge>
    <edge id=":12_40" function="internal">
        <lane id=":12_40_0" index="0" allow="bicycle" speed="13.89" length="5.44" width="3.50" shape="10.94,-10.94 13.05,-9.67 16.00,-9.25"/>
    </edge>
    <edge id=":12_41" function="internal">
        <lane id=":12_41_0" index="0" allow="bicycle" speed="13.89" length="40.07" width="3.50" shape="8.41,-11.70 6.00,6.00 -16.00,9.00"/>
    </edge>
    <edge id=":12_42" function="internal">
        <lane id=":12_42_0" index="0" disallow="pedestrian bicycle rail_electric rail_fast" speed="16.67" length="5.17" width="3.75" shape="11.00,-6.73 11.46,-6.40 16.00,-5.63"/>
    </edge>
    <edge id=":12_43" function="internal">
        <lane id=":12_43_0" index="0" disallow="pedestrian bicycle rail_electric rail_fast" speed="16.67" length="21.58" width="3.75" shape="0.70,-9.20 -2.59,-3.09 -8.18,0.63 -16.00,1.88"/>
    </edge>
    <edge id=":12_24" function="internal">
        <lane id=":12_24_0" index="0" allow="pedestrian" speed="13.89" length="4.28" width="5.00" shape="-16.00,-13.20 -14.91,-13.38 -14.12,-13.90 -13.66,-14.77 -13.50,-16.00"/>
    </edge>
    <edge id=":12_25" function="internal">
        <lane id=":12_25_0" index="0" allow="pedestrian" speed="13.89" length="32.00" width="5.00" shape="-16.00,-13.20 16.00,-13.50"/>
    </edge>
    <edge id=":12_26" function="internal">
        <lane id=":12_26_0" index="0" allow="bicycle" speed="13.89" length="5.31" width="3.50" shape="-16.00,-9.10 -13.05,-9.53 -11.07,-10.75"/>
    </edge>
    <edge id=":12_27" function="internal">
        <lane id=":12_27_0" index="0" allow="bicycle" speed="13.89" length="32.00" width="3.50" shape="-16.00,-9.10 16.00,-9.25"/>
    </edge>
    <edge id=":12_28" function="internal">
        <lane id=":12_28_0" index="0" allow="bicycle" speed="13.89" length="3.28" width="3.50" shape="-16.00,-9.10 -12.90,-8.02"/>
    </edge>
    <edge id=":12_29" function="internal">
        <lane id=":12_29_0" index="0" disallow="pedestrian bicycle rail_electric rail_fast" speed="16.67" length="12.94" width="3.75" shape="-18.00,-5.63 -12.59,-6.27 -8.72,-8.22 -6.88,-10.79"/>
    </edge>
    <edge id=":12_30" function="internal">
        <lane id=":12_30_0" index="0" disallow="pedestrian bicycle rail_electric rail_fast" speed="16.67" length="34.00" width="3.75" shape="-18.00,-1.87 16.00,-1.87"/>
    </edge>
    <edge id=":12_31" function="internal">
        <lane id=":12_31_0" index="0" disallow="pedestrian bicycle rail_electric rail_fast" speed="16.67" length="8.00" width="3.75" shape="-18.00,-1.87 -10.07,-0.86"/>
    </edge>
    <edge id=":12_44" function="internal">
        <lane id=":12_44_0" index="0" allow="bicycle" speed="13.89" length="5.70" width="3.50" shape="-11.07,-10.75 -10.94,-10.82 -9.67,-12.98 -9.25,-16.00"/>
    </edge>
    <edge id=":12_45" function="internal">
        <lane id=":12_45_0" index="0" allow="bicycle" speed="13.89" length="34.07" width="3.50" shape="-12.90,-8.02 -8.30,-6.43 -0.04,0.12 6.55,8.33 9.25,16.00"/>
    </edge>
    <edge id=":12_46" function="internal">
        <lane id=":12_46_0" index="0" disallow="pedestrian bicycle rail_electric rail_fast" speed="16.67" length="5.44" width="3.75" shape="-6.88,-10.79 -6.40,-11.46 -5.63,-16.00"/>
    </edge>
    <edge id=":12_47" function="internal">
        <lane id=":12_47_0" index="0" disallow="pedestrian bicycle rail_electric rail_fast" speed="16.67" length="22.46" width="3.75" shape="-10.07,-0.86 -9.30,-0.76 -3.09,2.59 0.63,8.18 1.87,16.00"/>
    </edge>
    <edge id=":12_c0" function="crossing" crossingEdges="gneE2 -gneE2">
        <lane id=":12_c0_0" index="0" allow="pedestrian" speed="1.00" length="22.00" width="4.00" shape="11.00,14.00 -11.00,14.00"/>
    </edge>
    <edge id=":12_c1" function="crossing" crossingEdges="gneE1 -gneE1">
        <lane id=":12_c1_0" index="0" allow="pedestrian" speed="1.00" length="22.00" width="4.00" shape="14.00,-11.00 14.00,11.00"/>
    </edge>
    <edge id=":12_c2" function="crossing" crossingEdges="gneE3 -gneE3">
        <lane id=":12_c2_0" index="0" allow="pedestrian" speed="1.00" length="22.00" width="4.00" shape="-11.00,-14.00 11.00,-14.00"/>
    </edge>
    <edge id=":12_c3" function="crossing" crossingEdges="-gneE0 gneE12">
        <lane id=":12_c3_0" index="0" allow="pedestrian" speed="1.00" length="21.70" width="4.00" shape="-14.00,11.00 -14.00,-10.70"/>
    </edge>
    <edge id=":12_w0" function="walkingarea">
        <lane id=":12_w0_0" index="0" allow="pedestrian" speed="1.00" length="4.04" width="5.00" shape="-12.00,11.00 -16.00,11.00 -16.00,16.00 -16.00,16.00 -11.00,16.00 -11.00,12.00"/>
    </edge>
    <edge id=":12_w1" function="walkingarea">
        <lane id=":12_w1_0" index="0" allow="pedestrian" speed="1.00" length="4.04" width="5.00" shape="11.00,12.00 11.00,16.00 16.00,16.00 16.00,16.00 16.00,11.00 12.00,11.00"/>
    </edge>
    <edge id=":12_w2" function="walkingarea">
        <lane id=":12_w2_0" index="0" allow="pedestrian" speed="1.00" length="4.04" width="5.00" shape="12.00,-11.00 16.00,-11.00 16.00,-16.00 16.00,-16.00 11.00,-16.00 11.00,-12.00"/>
    </edge>
    <edge id=":12_w3" function="walkingarea">
        <lane id=":12_w3_0" index="0" allow="pedestrian" speed="1.00" length="4.17" width="5.00" shape="-11.00,-12.00 -11.00,-16.00 -16.00,-16.00 -16.00,-15.70 -16.00,-10.70 -12.00,-10.70"/>
    </edge>
    <edge id=":13_0" function="internal">
        <lane id=":13_0_0" index="0" allow="pedestrian" speed="13.89" length="4.03" width="5.00" shape="608.50,16.00 608.34,14.91 607.88,14.12 607.09,13.66 606.00,13.50"/>
    </edge>
    <edge id=":13_1" function="internal">
        <lane id=":13_1_0" index="0" allow="pedestrian" speed="13.89" length="32.00" width="5.00" shape="608.50,16.00 608.50,-16.00"/>
    </edge>
    <edge id=":13_2" function="internal">
        <lane id=":13_2_0" index="0" allow="bicycle" speed="13.89" length="5.44" width="3.50" shape="612.75,16.00 612.33,13.05 611.06,10.94"/>
    </edge>
    <edge id=":13_3" function="internal">
        <lane id=":13_3_0" index="0" allow="bicycle" speed="13.89" length="32.00" width="3.50" shape="612.75,16.00 612.75,-16.00"/>
    </edge>
    <edge id=":13_4" function="internal">
        <lane id=":13_4_0" index="0" allow="bicycle" speed="13.89" length="3.28" width="3.50" shape="612.75,16.00 613.84,12.90"/>
    </edge>
    <edge id=":13_5" function="internal">
        <lane id=":13_5_0" index="0" disallow="pedestrian bicycle rail_electric rail_fast" speed="16.67" length="13.20" width="3.75" shape="616.38,18.00 615.73,12.59 613.78,8.72 611.00,6.73"/>
    </edge>
    <edge id=":13_6" function="internal">
        <lane id=":13_6_0" index="0" disallow="pedestrian bicycle rail_electric rail_fast" speed="16.67" length="34.00" width="3.75" shape="620.13,18.00 620.13,-16.00"/>
    </edge>
    <edge id=":13_7" function="internal">
        <lane id=":13_7_0" index="0" disallow="pedestrian bicycle rail_electric rail_fast" speed="16.67" length="2.02" width="3.75" shape="620.13,18.00 620.38,16.00"/>
    </edge>
    <edge id=":13_32" function="internal">
        <lane id=":13_32_0" index="0" allow="bicycle" speed="13.89" length="5.44" width="3.50" shape="611.06,10.94 608.95,9.67 606.00,9.25"/>
    </edge>
    <edge id=":13_33" function="internal">
        <lane id=":13_33_0" index="0" allow="bicycle" speed="13.89" length="34.17" width="3.50" shape="613.84,12.90 615.45,8.30 622.04,0.04 630.30,-6.55 638.00,-9.25"/>
    </edge>
    <edge id=":13_34" function="internal">
        <lane id=":13_34_0" index="0" disallow="pedestrian bicycle rail_electric rail_fast" speed="16.67" length="5.17" width="3.75" shape="611.00,6.73 610.54,6.40 606.00,5.63"/>
    </edge>
    <edge id=":13_35" function="internal">
        <lane id=":13_35_0" index="0" disallow="pedestrian bicycle rail_electric rail_fast" speed="16.67" length="28.44" width="3.75" shape="620.38,16.00 621.24,9.30 624.59,3.09 630.18,-0.63 638.00,-1.87"/>
    </edge>
    <edge id=":13_8" function="internal">
        <lane id=":13_8_0" index="0" allow="pedestrian" speed="13.89" length="4.03" width="5.00" shape="638.00,13.50 636.91,13.66 636.13,14.13 635.66,14.91 635.50,16.00"/>
    </edge>
    <edge id=":13_9" function="internal">
        <lane id=":13_9_0" index="0" allow="pedestrian" speed="13.89" length="32.00" width="5.00" shape="638.00,13.50 606.00,13.50"/>
    </edge>
    <edge id=":13_10" function="internal">
        <lane id=":13_10_0" index="0" allow="bicycle" speed="13.89" length="5.44" width="3.50" shape="638.00,9.25 635.05,9.67 632.94,10.94"/>
    </edge>
    <edge id=":13_11" function="internal">
        <lane id=":13_11_0" index="0" allow="bicycle" speed="13.89" length="32.00" width="3.50" shape="638.00,9.25 606.00,9.25"/>
    </edge>
    <edge id=":13_12" function="internal">