<?xml version="1.0" encoding="UTF-8"?>

<!-- generated on 09/30/20 15:29:35 by Eclipse SUMO netedit Version 1.6.0
<configuration xmlns:xsi="http://www.w3.org/2001/XMLSchema-instance" xsi:noNamespaceSchemaLocation="http://sumo.dlr.de/xsd/netconvertConfiguration.xsd">

    <input>
        <sumo-net-file value="D:\codecode\LasVSim-gui%200.2.1.200901_alpha\Map\Map1_Urban%20Road\grid-map.net.xml"/>
    </input>

    <output>
        <output-file value="D:\codecode\LasVSim-gui%200.2.1.200901_alpha\Map\Map1_Urban%20Road\grid-map.net.xml"/>
    </output>

    <processing>
        <geometry.min-radius.fix.railways value="false"/>
        <geometry.max-grade.fix value="false"/>
        <offset.disable-normalization value="true"/>
        <lefthand value="false"/>
    </processing>

    <junctions>
        <no-internal-links value="false"/>
        <no-turnarounds value="true"/>
        <junctions.corner-detail value="0"/>
        <junctions.limit-turn-speed value="-1"/>
        <rectangular-lane-cut value="false"/>
    </junctions>

    <pedestrian>
        <walkingareas value="false"/>
    </pedestrian>

    <netedit>
        <route-files value="D:\codecode\LasVSim-gui%200.2.1.200901_alpha\Map\Map1_Urban%20Road\testperson.rou.xml"/>
    </netedit>

    <report>
        <aggregate-warnings value="5"/>
    </report>

</configuration>
-->

<routes xmlns:xsi="http://www.w3.org/2001/XMLSchema-instance" xsi:noNamespaceSchemaLocation="http://sumo.dlr.de/xsd/routes_file.xsd">
    <personFlow id="personFlow_0" begin="0.00" end="3600.00" number="1800">
        <personTrip from="-gneE1" to="gneE7"/>
    </personFlow>
    <personFlow id="personFlow_1" begin="0.00" end="3600.00" number="1800">
        <personTrip from="-gneE1" to="-gneE5"/>
    </personFlow>
</routes>
