<configuration>
	<input>
	<net-file value="grid-mappppp.net.xml"/>
	<route-files value="grid-map-traffic_Mixed_200.rou.xml"/>
	<additional-files value="grid-map-additions.add.xml"/>
    <lateral-resolution value="0.4"/>
</input>
<gui_only>
	<gui-settings-file value="grid-map-viewsetting.xml"/>
</gui_only>

</configuration>